C05402
                    3D
 Structure written by MMmdl.
 45 46  0  0  1  0            999 V2000
    2.9763    2.1988    2.6778 C   0  0  2  0  0  0
    4.2141    1.7033    3.1446 O   0  0  0  0  0  0
    2.5298    3.3383    3.3773 O   0  0  0  0  0  0
    1.9078    1.0883    2.7259 C   0  0  1  0  0  0
    4.2081    1.2557    4.5118 C   0  0  1  0  0  0
    2.7111    4.5756    2.6833 C   0  0  0  0  0  0
    1.8217    0.5172    4.1524 C   0  0  2  0  0  0
    0.6571    1.6228    2.3022 O   0  0  0  0  0  0
    3.2184    0.0729    4.6283 C   0  0  1  0  0  0
    5.6597    0.9200    4.8942 C   0  0  0  0  0  0
    1.3606    5.3064    2.6753 C   0  0  2  0  0  0
    0.8993   -0.5686    4.2243 O   0  0  0  0  0  0
    3.6806   -1.0514    3.8799 O   0  0  0  0  0  0
    5.7666    0.4995    6.2499 O   0  0  0  0  0  0
    0.1597    4.3377    2.6878 C   0  0  2  0  0  0
    1.3124    6.0660    1.4710 O   0  0  0  0  0  0
   -1.1519    5.1157    2.4875 C   0  0  1  0  0  0
    0.0993    3.6908    3.9439 O   0  0  0  0  0  0
    0.2008    6.8973    1.3520 C   0  0  2  0  0  0
   -1.0651    6.0210    1.2432 C   0  0  2  0  0  0
   -2.1924    4.1799    2.2770 O   0  0  0  0  0  0
    0.3162    7.7003    0.2007 O   0  0  0  0  0  0
   -2.2266    6.8282    1.2124 O   0  0  0  0  0  0
    3.1525    2.5183    1.6419 H   0  0  0  0  0  0
    2.2007    0.3009    2.0301 H   0  0  0  0  0  0
    3.8712    2.0764    5.1477 H   0  0  0  0  0  0
    3.4741    5.1805    3.1756 H   0  0  0  0  0  0
    3.0500    4.3646    1.6683 H   0  0  0  0  0  0
    1.4640    1.3028    4.8200 H   0  0  0  0  0  0
    0.6527    1.6424    1.3350 H   0  0  0  0  0  0
    3.1524   -0.2272    5.6748 H   0  0  0  0  0  0
    6.0610    0.1400    4.2465 H   0  0  0  0  0  0
    6.2892    1.7987    4.7515 H   0  0  0  0  0  0
    1.3078    5.9771    3.5354 H   0  0  0  0  0  0
    0.7330   -0.7707    5.1555 H   0  0  0  0  0  0
    4.1812   -1.6262    4.4755 H   0  0  0  0  0  0
    5.5369   -0.4386    6.3004 H   0  0  0  0  0  0
    0.2798    3.5920    1.9000 H   0  0  0  0  0  0
   -1.3730    5.7168    3.3718 H   0  0  0  0  0  0
    0.8863    3.1751    4.0411 H   0  0  0  0  0  0
    0.1558    7.5714    2.2097 H   0  0  0  0  0  0
   -1.0000    5.4265    0.3299 H   0  0  0  0  0  0
   -2.0250    3.7439    1.4543 H   0  0  0  0  0  0
    0.5034    8.5831    0.4816 H   0  0  0  0  0  0
   -2.0707    7.5381    0.6071 H   0  0  0  0  0  0
  1  2  1  0  0  0
  1  3  1  0  0  0
  1  4  1  0  0  0
  1 24  1  0  0  0
  2  5  1  0  0  0
  3  6  1  0  0  0
  4  7  1  0  0  0
  4  8  1  0  0  0
  4 25  1  0  0  0
  5  9  1  0  0  0
  5 10  1  0  0  0
  5 26  1  0  0  0
  6 11  1  0  0  0
  6 27  1  0  0  0
  6 28  1  0  0  0
  7 12  1  0  0  0
  7  9  1  0  0  0
  7 29  1  0  0  0
  8 30  1  0  0  0
  9 13  1  0  0  0
  9 31  1  0  0  0
 10 14  1  0  0  0
 10 32  1  0  0  0
 10 33  1  0  0  0
 11 15  1  0  0  0
 11 16  1  0  0  0
 11 34  1  0  0  0
 12 35  1  0  0  0
 13 36  1  0  0  0
 14 37  1  0  0  0
 15 17  1  0  0  0
 15 18  1  0  0  0
 15 38  1  0  0  0
 16 19  1  0  0  0
 17 20  1  0  0  0
 17 21  1  0  0  0
 17 39  1  0  0  0
 18 40  1  0  0  0
 19 22  1  0  0  0
 19 20  1  0  0  0
 19 41  1  0  0  0
 20 23  1  0  0  0
 20 42  1  0  0  0
 21 43  1  0  0  0
 22 44  1  0  0  0
 23 45  1  0  0  0
M  END
> <i_ionizer_Ion_state_n>
0

> <i_ionizer_Tot_Q>
0

> <s_ionizer_Ion_centers>


> <s_ionizer_Ion_types>


> <s_ionizer_Ion_ctrs_in>


> <r_ionizer_Ionization_penalty>
0

> <r_ionizer_Ionization_penalty_charging>
0

> <r_ionizer_Ionization_penalty_neutral>
0

> <s_st_Chirality_1>
1_S_2_3_4_24

> <s_st_Chirality_2>
4_R_8_1_7_25

> <s_st_Chirality_3>
5_R_2_9_10_26

> <s_st_Chirality_4>
7_S_12_4_9_29

> <s_st_Chirality_5>
9_S_13_7_5_31

> <s_st_Chirality_6>
11_R_16_15_6_34

> <s_st_Chirality_7>
15_R_18_17_11_38

> <s_st_Chirality_8>
17_S_21_20_15_39

> <s_st_Chirality_9>
20_R_23_19_17_42

> <s_st_Chirality_10>
19_R_16_22_20_41

> <i_mmod_Serial_Number-OPLS-2005>
686

> <i_i_glide_lignum>
679

> <r_i_docking_score>
-9.17022

> <r_i_glide_gscore>
-9.17022

> <r_i_glide_lipo>
-0.943931

> <r_i_glide_hbond>
-2.53942

> <r_i_glide_metal>
0

> <r_i_glide_eburp>
-1.59468

> <r_i_glide_evdw>
-21.9679

> <r_i_glide_ecoul>
-28.0032

> <r_i_glide_erotb>
0.739756

> <r_i_glide_esite>
-0.27419

> <r_i_glide_emodel>
-81.3739

> <r_i_glide_energy>
-49.9711

> <r_i_glide_einternal>
12.2605

> <i_i_glide_confnum>
10

> <i_i_glide_posenum>
757

$$$$
C00252
                    3D
 Structure written by MMmdl.
 45 46  0  0  1  0            999 V2000
    3.6494    1.9027    1.6453 C   0  0  2  0  0  0
    4.6109    1.8522    2.6741 O   0  0  0  0  0  0
    2.6104    2.8237    1.8859 O   0  0  0  0  0  0
    3.0769    0.4969    1.4147 C   0  0  1  0  0  0
    4.0918    1.4915    3.9642 C   0  0  1  0  0  0
    3.0449    4.1455    2.2199 C   0  0  0  0  0  0
    2.4812   -0.0561    2.7212 C   0  0  2  0  0  0
    2.1004    0.5540    0.3792 O   0  0  0  0  0  0
    3.5080    0.0570    3.8693 C   0  0  2  0  0  0
    5.2621    1.6501    4.9547 C   0  0  0  0  0  0
    1.8060    5.0498    2.3239 C   0  0  2  0  0  0
    2.1057   -1.4188    2.5336 O   0  0  0  0  0  0
    2.8996   -0.3257    5.0999 O   0  0  0  0  0  0
    6.0993    0.5004    5.0078 O   0  0  0  0  0  0
    0.4805    4.2700    2.4639 C   0  0  2  0  0  0
    1.7676    5.8726    1.1621 O   0  0  0  0  0  0
   -0.7093    5.2415    2.4106 C   0  0  1  0  0  0
    0.4628    3.6128    3.7163 O   0  0  0  0  0  0
    0.7705    6.8467    1.1706 C   0  0  2  0  0  0
   -0.6097    6.1539    1.1722 C   0  0  2  0  0  0
   -1.8965    4.4791    2.3004 O   0  0  0  0  0  0
    0.8822    7.6654    0.0299 O   0  0  0  0  0  0
   -1.6458    7.1138    1.2576 O   0  0  0  0  0  0
    4.1814    2.2561    0.7518 H   0  0  0  0  0  0
    3.8930   -0.1489    1.0871 H   0  0  0  0  0  0
    3.3064    2.1984    4.2363 H   0  0  0  0  0  0
    3.5781    4.1295    3.1714 H   0  0  0  0  0  0
    3.7337    4.5114    1.4575 H   0  0  0  0  0  0
    1.5902    0.5200    2.9776 H   0  0  0  0  0  0
    2.5509    0.4115   -0.4650 H   0  0  0  0  0  0
    4.3323   -0.6297    3.6702 H   0  0  0  0  0  0
    5.8645    2.5215    4.6968 H   0  0  0  0  0  0
    4.8676    1.8274    5.9557 H   0  0  0  0  0  0
    1.9374    5.7001    3.1910 H   0  0  0  0  0  0
    2.9048   -1.9360    2.3636 H   0  0  0  0  0  0
    3.4637   -0.9802    5.5328 H   0  0  0  0  0  0
    5.6269   -0.2053    5.4702 H   0  0  0  0  0  0
    0.3917    3.5318    1.6652 H   0  0  0  0  0  0
   -0.7455    5.8466    3.3187 H   0  0  0  0  0  0
    1.1994    3.0199    3.7417 H   0  0  0  0  0  0
    0.9000    7.4921    2.0417 H   0  0  0  0  0  0
   -0.7120    5.5772    0.2510 H   0  0  0  0  0  0
   -1.8843    4.0484    1.4582 H   0  0  0  0  0  0
    0.8750    8.5655    0.3181 H   0  0  0  0  0  0
   -1.4513    7.8056    0.6426 H   0  0  0  0  0  0
  1  2  1  0  0  0
  1  3  1  0  0  0
  1  4  1  0  0  0
  1 24  1  0  0  0
  2  5  1  0  0  0
  3  6  1  0  0  0
  4  7  1  0  0  0
  4  8  1  0  0  0
  4 25  1  0  0  0
  5  9  1  0  0  0
  5 10  1  0  0  0
  5 26  1  0  0  0
  6 11  1  0  0  0
  6 27  1  0  0  0
  6 28  1  0  0  0
  7 12  1  0  0  0
  7  9  1  0  0  0
  7 29  1  0  0  0
  8 30  1  0  0  0
  9 13  1  0  0  0
  9 31  1  0  0  0
 10 14  1  0  0  0
 10 32  1  0  0  0
 10 33  1  0  0  0
 11 15  1  0  0  0
 11 16  1  0  0  0
 11 34  1  0  0  0
 12 35  1  0  0  0
 13 36  1  0  0  0
 14 37  1  0  0  0
 15 17  1  0  0  0
 15 18  1  0  0  0
 15 38  1  0  0  0
 16 19  1  0  0  0
 17 20  1  0  0  0
 17 21  1  0  0  0
 17 39  1  0  0  0
 18 40  1  0  0  0
 19 22  1  0  0  0
 19 20  1  0  0  0
 19 41  1  0  0  0
 20 23  1  0  0  0
 20 42  1  0  0  0
 21 43  1  0  0  0
 22 44  1  0  0  0
 23 45  1  0  0  0
M  END
> <i_ionizer_Ion_state_n>
0

> <i_ionizer_Tot_Q>
0

> <s_ionizer_Ion_centers>


> <s_ionizer_Ion_types>


> <s_ionizer_Ion_ctrs_in>


> <r_ionizer_Ionization_penalty>
0

> <r_ionizer_Ionization_penalty_charging>
0

> <r_ionizer_Ionization_penalty_neutral>
0

> <s_st_Chirality_1>
1_S_2_3_4_24

> <s_st_Chirality_2>
4_R_8_1_7_25

> <s_st_Chirality_3>
5_R_2_9_10_26

> <s_st_Chirality_4>
7_S_12_4_9_29

> <s_st_Chirality_5>
9_R_13_7_5_31

> <s_st_Chirality_6>
11_R_16_15_6_34

> <s_st_Chirality_7>
15_R_18_17_11_38

> <s_st_Chirality_8>
17_S_21_20_15_39

> <s_st_Chirality_9>
20_R_23_19_17_42

> <s_st_Chirality_10>
19_R_16_22_20_41

> <i_mmod_Serial_Number-OPLS-2005>
165

> <i_i_glide_lignum>
163

> <r_i_docking_score>
-8.17455

> <r_i_glide_gscore>
-8.17455

> <r_i_glide_lipo>
-0.917867

> <r_i_glide_hbond>
-2.30452

> <r_i_glide_metal>
0

> <r_i_glide_eburp>
-0.890156

> <r_i_glide_evdw>
-24.4857

> <r_i_glide_ecoul>
-22.4199

> <r_i_glide_erotb>
0.739756

> <r_i_glide_esite>
-0.600909

> <r_i_glide_emodel>
-76.1402

> <r_i_glide_energy>
-46.9056

> <r_i_glide_einternal>
11.795

> <i_i_glide_confnum>
4

> <i_i_glide_posenum>
366

$$$$
C05673
                    3D
 Structure written by MMmdl.
 46 47  0  0  1  0            999 V2000
    3.0700   -0.2742    0.9437 C   0  0  2  0  0  0
    4.4972   -0.3337    0.4494 N   0  0  0  0  0  0
    2.5821    1.0231    0.7512 O   0  0  0  0  0  0
    3.0184   -0.5885    2.4462 C   0  0  1  0  0  0
    5.2967    0.8310    0.5153 C   0  0  0  0  0  0
    5.0173   -1.4951   -0.1049 C   0  0  0  0  0  0
    2.0877    1.5522    1.9787 C   0  0  1  0  0  0
    2.8834    0.8010    3.0480 C   0  0  1  0  0  0
    1.9112   -1.4127    2.7593 O   0  0  0  0  0  0
    6.5780    0.7407    0.0410 N   0  0  0  0  0  0
    4.8656    1.8902    0.9688 O   0  0  0  0  0  0
    6.2822   -1.5653   -0.5731 C   0  0  0  0  0  0
    2.2711    3.0750    1.9968 C   0  0  0  0  0  0
    2.2605    0.7908    4.3192 O   0  0  0  0  0  0
    7.0793   -0.3636   -0.4766 C   0  0  0  0  0  0
    1.6811    3.5988    3.1673 O   0  0  0  0  0  0
    8.3449   -0.3514   -0.9162 N   0  0  0  0  0  0
    0.2877    4.5688    3.0988 P   0  0  0  0  0  0
    0.2485    5.1469    1.5004 O   0  0  0  0  0  0
   -0.8933    3.6987    3.3003 O   0  0  0  0  0  0
    0.9629    6.4479    0.6728 P   0  0  0  0  0  0
    0.4132    7.8207    1.8223 C   0  0  0  0  0  0
    2.4368    6.3371    0.7395 O   0  0  0  0  0  0
   -0.9076    8.4014    1.3074 C   0  0  0  0  0  0
    2.4965   -0.9672    0.3260 H   0  0  0  0  0  0
    3.9283   -1.0892    2.7806 H   0  0  0  0  0  0
    4.4077   -2.3832   -0.1750 H   0  0  0  0  0  0
    1.0294    1.2967    2.0557 H   0  0  0  0  0  0
    3.8758    1.2370    3.1479 H   0  0  0  0  0  0
    1.8849   -1.5035    3.7008 H   0  0  0  0  0  0
    6.6461   -2.4919   -0.9935 H   0  0  0  0  0  0
    3.3286    3.3366    1.9658 H   0  0  0  0  0  0
    1.8013    3.5277    1.1234 H   0  0  0  0  0  0
    2.7499    0.2002    4.8759 H   0  0  0  0  0  0
    8.7522   -1.1831   -1.3181 H   0  0  0  0  0  0
    8.8882    0.4963   -0.8425 H   0  0  0  0  0  0
    0.2919    7.4334    2.8342 H   0  0  0  0  0  0
    1.1791    8.5955    1.8668 H   0  0  0  0  0  0
   -0.7419    8.9579    0.3841 H   0  0  0  0  0  0
   -1.6098    7.5992    1.0777 H   0  0  0  0  0  0
   -2.3841    9.6676    1.9345 H   0  0  0  0  0  0
   -1.7006    8.7860    3.1503 H   0  0  0  0  0  0
    0.5036    5.7220    4.0010 O   0  5  0  0  0  0
    0.2882    6.6293   -0.6326 O   0  5  0  0  0  0
   -1.5176    9.2999    2.3005 N   0  3  0  0  0  0
   -0.8840   10.0615    2.4966 H   0  0  0  0  0  0
  1  2  1  0  0  0
  1  3  1  0  0  0
  1  4  1  0  0  0
  1 25  1  0  0  0
  2  5  1  0  0  0
  2  6  1  0  0  0
  3  7  1  0  0  0
  4  8  1  0  0  0
  4  9  1  0  0  0
  4 26  1  0  0  0
  5 10  1  0  0  0
  5 11  2  0  0  0
  6 12  2  0  0  0
  6 27  1  0  0  0
  7 13  1  0  0  0
  7  8  1  0  0  0
  7 28  1  0  0  0
  8 14  1  0  0  0
  8 29  1  0  0  0
  9 30  1  0  0  0
 10 15  2  0  0  0
 12 15  1  0  0  0
 12 31  1  0  0  0
 13 16  1  0  0  0
 13 32  1  0  0  0
 13 33  1  0  0  0
 14 34  1  0  0  0
 15 17  1  0  0  0
 16 18  1  0  0  0
 17 35  1  0  0  0
 17 36  1  0  0  0
 18 19  1  0  0  0
 18 20  2  0  0  0
 18 43  1  0  0  0
 19 21  1  0  0  0
 21 22  1  0  0  0
 21 23  2  0  0  0
 21 44  1  0  0  0
 22 24  1  0  0  0
 22 37  1  0  0  0
 22 38  1  0  0  0
 24 39  1  0  0  0
 24 40  1  0  0  0
 24 45  1  0  0  0
 41 45  1  0  0  0
 42 45  1  0  0  0
 45 46  1  0  0  0
M  CHG  3  43  -1  44  -1  45   1
M  END
> <i_ionizer_Ion_state_n>
7

> <i_ionizer_Tot_Q>
-1

> <s_ionizer_Ion_centers>
43_44_45

> <s_ionizer_Ion_types>
OM_OM_N5

> <s_ionizer_Ion_ctrs_in>
20_24_27

> <r_ionizer_Ionization_penalty>
0.000213525

> <r_ionizer_Ionization_penalty_charging>
0.000213525

> <r_ionizer_Ionization_penalty_neutral>
0

> <s_st_Chirality_1>
1_R_3_2_4_25

> <s_st_Chirality_2>
4_R_9_1_8_26

> <s_st_Chirality_3>
7_R_3_8_13_28

> <s_st_Chirality_4>
8_R_14_4_7_29

> <i_mmod_Serial_Number-OPLS-2005>
782

> <i_i_glide_lignum>
773

> <r_i_docking_score>
-8.16124

> <r_i_glide_gscore>
-8.16124

> <r_i_glide_lipo>
-0.926776

> <r_i_glide_hbond>
-2.395

> <r_i_glide_metal>
0

> <r_i_glide_eburp>
-0.936042

> <r_i_glide_evdw>
-33.3002

> <r_i_glide_ecoul>
-16.1433

> <r_i_glide_erotb>
0.862777

> <r_i_glide_esite>
-0.487856

> <r_i_glide_emodel>
-127.689

> <r_i_glide_energy>
-49.4435

> <r_i_glide_einternal>
11.5715

> <i_i_glide_confnum>
36

> <i_i_glide_posenum>
678

$$$$
C01103
                    3D
 Structure written by MMmdl.
 34 35  0  0  1  0            999 V2000
    2.5653    2.1348    2.8818 C   0  0  2  0  0  0
    2.3045    3.4901    2.2165 N   0  0  0  0  0  0
    3.6335    1.5236    2.2253 O   0  0  0  0  0  0
    1.3629    1.1621    2.8242 C   0  0  1  0  0  0
    1.0949    4.2055    2.3328 C   0  0  0  0  0  0
    3.3588    4.0744    1.4686 C   0  0  0  0  0  0
    3.4464    0.1147    2.2571 C   0  0  1  0  0  0
    1.9353   -0.0341    2.0582 C   0  0  1  0  0  0
    0.9590    0.7740    4.1249 O   0  0  0  0  0  0
    0.8860    5.3836    1.6892 C   0  0  0  0  0  0
   -0.0201    3.6935    3.3147 C   0  0  0  0  0  0
    3.1064    5.2743    0.8106 N   0  0  0  0  0  0
    4.4764    3.5733    1.3685 O   0  0  0  0  0  0
    4.3342   -0.5415    1.1866 C   0  0  0  0  0  0
    1.4304   -1.2747    2.5178 O   0  0  0  0  0  0
    1.9113    5.9843    0.8507 C   0  0  0  0  0  0
    0.3557    2.9844    4.2744 O   0  0  0  0  0  0
    5.7054   -0.2963    1.4537 O   0  0  0  0  0  0
    1.7919    7.0322    0.2196 O   0  0  0  0  0  0
    6.7318    0.0190    0.0209 P   0  0  0  0  0  0
    8.1405    0.1052    0.6485 O   0  0  0  0  0  0
    2.8463    2.2983    3.9157 H   0  0  0  0  0  0
    0.5035    1.5950    2.3121 H   0  0  0  0  0  0
    3.7388   -0.2281    3.2515 H   0  0  0  0  0  0
    1.6929    0.0602    0.9999 H   0  0  0  0  0  0
    1.6393    0.2120    4.4683 H   0  0  0  0  0  0
   -0.0506    5.9108    1.8079 H   0  0  0  0  0  0
    3.8594    5.6673    0.2662 H   0  0  0  0  0  0
    4.1093   -1.6041    1.0870 H   0  0  0  0  0  0
    4.1236   -0.0918    0.2164 H   0  0  0  0  0  0
    1.7265   -1.3822    3.4201 H   0  0  0  0  0  0
   -1.1765    4.1139    3.0909 O   0  5  0  0  0  0
    6.4527   -1.2235   -0.8538 O   0  5  0  0  0  0
    6.1433    1.3514   -0.4915 O   0  5  0  0  0  0
  1  2  1  0  0  0
  1  3  1  0  0  0
  1  4  1  0  0  0
  1 22  1  0  0  0
  2  5  1  0  0  0
  2  6  1  0  0  0
  3  7  1  0  0  0
  4  8  1  0  0  0
  4  9  1  0  0  0
  4 23  1  0  0  0
  5 10  2  0  0  0
  5 11  1  0  0  0
  6 12  1  0  0  0
  6 13  2  0  0  0
  7 14  1  0  0  0
  7  8  1  0  0  0
  7 24  1  0  0  0
  8 15  1  0  0  0
  8 25  1  0  0  0
  9 26  1  0  0  0
 10 16  1  0  0  0
 10 27  1  0  0  0
 11 17  2  0  0  0
 11 32  1  0  0  0
 12 16  1  0  0  0
 12 28  1  0  0  0
 14 18  1  0  0  0
 14 29  1  0  0  0
 14 30  1  0  0  0
 15 31  1  0  0  0
 16 19  2  0  0  0
 18 20  1  0  0  0
 20 21  2  0  0  0
 20 33  1  0  0  0
 20 34  1  0  0  0
M  CHG  3  32  -1  33  -1  34  -1
M  END
> <i_ionizer_Ion_state_n>
7

> <i_ionizer_Tot_Q>
-3

> <s_ionizer_Ion_centers>
32_33_34

> <s_ionizer_Ion_types>
OM_OM_OM

> <s_ionizer_Ion_ctrs_in>
17_22_23

> <r_ionizer_Ionization_penalty>
0.000607108

> <r_ionizer_Ionization_penalty_charging>
0.000607108

> <r_ionizer_Ionization_penalty_neutral>
0

> <s_st_Chirality_1>
1_R_3_2_4_22

> <s_st_Chirality_2>
4_R_9_1_8_23

> <s_st_Chirality_3>
7_R_3_8_14_24

> <s_st_Chirality_4>
8_R_15_4_7_25

> <i_mmod_Serial_Number-OPLS-2005>
393

> <i_i_glide_lignum>
389

> <r_i_docking_score>
-8.12966

> <r_i_glide_gscore>
-8.12966

> <r_i_glide_lipo>
-0.688485

> <r_i_glide_hbond>
-2.01896

> <r_i_glide_metal>
0

> <r_i_glide_eburp>
-1.42143

> <r_i_glide_evdw>
-31.9997

> <r_i_glide_ecoul>
-12.5578

> <r_i_glide_erotb>
0.494503

> <r_i_glide_esite>
-0.679544

> <r_i_glide_emodel>
-95.0568

> <r_i_glide_energy>
-44.5574

> <r_i_glide_einternal>
12.2548

> <i_i_glide_confnum>
2

> <i_i_glide_posenum>
535

$$$$
C06749
                    3D
 Structure written by MMmdl.
 97100  0  0  1  0            999 V2000
  -10.6377    8.0909   13.9655 N   0  0  0  0  0  0
  -10.5605    7.8795   12.4928 C   0  0  1  0  0  0
   -9.5861    8.0051   14.8478 C   0  0  0  0  0  0
  -11.7304    8.4262   14.7364 C   0  0  0  0  0  0
  -11.8290    7.1927   11.9804 C   0  0  1  0  0  0
  -10.4985    9.1318   11.8941 O   0  0  0  0  0  0
  -10.1283    8.3144   16.1243 C   0  0  0  0  0  0
   -8.2823    7.6995   14.5816 N   0  0  0  0  0  0
  -11.4897    8.5644   16.0138 N   0  0  0  0  0  0
  -12.5159    8.3084   11.2047 C   0  0  1  0  0  0
  -11.5026    6.1367   11.1000 O   0  0  0  0  0  0
  -11.3356    9.1797   10.7436 C   0  0  1  0  0  0
   -9.2065    8.3078   17.2005 C   0  0  0  0  0  0
   -7.5373    7.7291   15.6902 C   0  0  0  0  0  0
  -13.3157    7.6939   10.1976 O   0  0  0  0  0  0
  -11.6622   10.6551   10.4400 C   0  0  0  0  0  0
   -7.9115    8.0093   16.9433 N   0  0  0  0  0  0
   -9.5563    8.5862   18.4631 N   0  0  0  0  0  0
  -14.4350    8.7304    9.2548 P   0  0  0  0  0  0
  -10.6783   11.3317    9.6647 O   0  0  0  0  0  0
  -13.4903    9.7556    8.5877 O   0  0  0  0  0  0
  -10.9860   12.7797    8.8117 P   0  0  0  0  0  0
   -9.4447   13.1142    8.1689 O   0  0  0  0  0  0
  -11.9463   12.4935    7.7206 O   0  0  0  0  0  0
   -8.7346   13.2644    6.6302 P   0  0  0  0  0  0
   -7.3373   12.2946    6.7228 O   0  0  0  0  0  0
   -9.6497   12.6935    5.6154 O   0  0  0  0  0  0
   -6.5052   12.0479    5.6044 C   0  0  0  0  0  0
   -5.4360   10.9721    5.9219 C   0  0  0  0  0  0
   -4.6426   10.6615    4.6074 C   0  0  2  0  0  0
   -4.5137   11.4738    7.0569 C   0  0  0  0  0  0
   -6.1711    9.7006    6.4087 C   0  0  0  0  0  0
   -3.7230    9.4272    4.6689 C   0  0  0  0  0  0
   -3.8729   11.7804    4.2042 O   0  0  0  0  0  0
   -3.2197    9.0036    3.4999 N   0  0  0  0  0  0
   -3.4560    8.8891    5.7440 O   0  0  0  0  0  0
   -2.3064    7.8785    3.3557 C   0  0  0  0  0  0
   -1.3902    8.0803    2.1363 C   0  0  0  0  0  0
   -0.5249    6.8548    1.8260 C   0  0  0  0  0  0
    0.5874    7.0795    1.1121 N   0  0  0  0  0  0
   -0.8560    5.7355    2.2175 O   0  0  0  0  0  0
    1.4828    6.0333    0.6373 C   0  0  0  0  0  0
    1.8731    5.0926    1.7828 C   0  0  0  0  0  0
    3.0487    3.8242    1.2228 S   0  0  0  0  0  0
    3.3216    2.9389    2.7904 C   0  0  0  0  0  0
    2.6798    1.6137    3.0104 C   0  0  0  0  0  0
    4.0384    3.4570    3.6472 O   0  0  0  0  0  0
    3.1154    0.8358    4.2556 C   0  0  1  0  0  0
    1.7095    1.1567    2.1871 C   0  0  0  0  0  0
    2.1101   -0.2662    4.6455 C   0  0  0  0  0  0
    4.3854    0.2486    4.0446 O   0  0  0  0  0  0
    0.9808   -0.1629    2.3782 C   0  0  0  0  0  0
    1.6534   -1.0701    3.4209 C   0  0  0  0  0  0
   -9.6426    7.3125   12.3308 H   0  0  0  0  0  0
  -12.7134    8.5821   14.3151 H   0  0  0  0  0  0
  -12.4482    6.8123   12.7941 H   0  0  0  0  0  0
  -13.1327    8.8699   11.9072 H   0  0  0  0  0  0
  -10.6358    6.3340   10.7691 H   0  0  0  0  0  0
  -10.8312    8.7087    9.8985 H   0  0  0  0  0  0
   -6.4910    7.4980   15.5553 H   0  0  0  0  0  0
  -12.5847   10.7240    9.8698 H   0  0  0  0  0  0
  -11.8357   11.2040   11.3660 H   0  0  0  0  0  0
   -8.8607    8.5704   19.1939 H   0  0  0  0  0  0
  -10.5154    8.8241   18.6720 H   0  0  0  0  0  0
   -7.1430   11.7255    4.7813 H   0  0  0  0  0  0
   -6.0351   12.9776    5.2820 H   0  0  0  0  0  0
   -5.3658   10.4929    3.8073 H   0  0  0  0  0  0
   -3.7671   10.7324    7.3389 H   0  0  0  0  0  0
   -3.9872   12.3854    6.7733 H   0  0  0  0  0  0
   -5.0854   11.7009    7.9571 H   0  0  0  0  0  0
   -5.4791    8.9157    6.7140 H   0  0  0  0  0  0
   -6.8050    9.9077    7.2714 H   0  0  0  0  0  0
   -6.8087    9.2915    5.6256 H   0  0  0  0  0  0
   -3.5548   11.6269    3.3282 H   0  0  0  0  0  0
   -3.4984    9.4855    2.6576 H   0  0  0  0  0  0
   -1.7113    7.7815    4.2656 H   0  0  0  0  0  0
   -2.8861    6.9597    3.2483 H   0  0  0  0  0  0
   -1.9887    8.3106    1.2540 H   0  0  0  0  0  0
   -0.7394    8.9392    2.3084 H   0  0  0  0  0  0
    0.8275    8.0335    0.8848 H   0  0  0  0  0  0
    0.9922    5.4696   -0.1579 H   0  0  0  0  0  0
    2.3755    6.4897    0.2067 H   0  0  0  0  0  0
    2.3251    5.6631    2.5953 H   0  0  0  0  0  0
    0.9835    4.6025    2.1806 H   0  0  0  0  0  0
    3.2052    1.5214    5.0997 H   0  0  0  0  0  0
    1.3727    1.7273    1.3354 H   0  0  0  0  0  0
    2.5384   -0.9276    5.3997 H   0  0  0  0  0  0
    1.2357    0.1935    5.1082 H   0  0  0  0  0  0
    4.5027   -0.4494    4.6707 H   0  0  0  0  0  0
   -0.0414    0.0626    2.6836 H   0  0  0  0  0  0
    0.9175   -0.6812    1.4211 H   0  0  0  0  0  0
    2.5167   -1.5630    2.9719 H   0  0  0  0  0  0
    0.9686   -1.8639    3.7206 H   0  0  0  0  0  0
  -15.0975    7.6989    8.3163 O   0  5  0  0  0  0
  -15.3387    9.2897   10.3754 O   0  5  0  0  0  0
  -11.3125   13.8229    9.8106 O   0  5  0  0  0  0
   -8.2788   14.6659    6.4847 O   0  5  0  0  0  0
  1  2  1  0  0  0
  1  3  1  0  0  0
  1  4  1  0  0  0
  2  5  1  0  0  0
  2  6  1  0  0  0
  2 54  1  0  0  0
  3  7  2  0  0  0
  3  8  1  0  0  0
  4  9  2  0  0  0
  4 55  1  0  0  0
  5 10  1  0  0  0
  5 11  1  0  0  0
  5 56  1  0  0  0
  6 12  1  0  0  0
  7 13  1  0  0  0
  7  9  1  0  0  0
  8 14  2  0  0  0
 10 15  1  0  0  0
 10 12  1  0  0  0
 10 57  1  0  0  0
 11 58  1  0  0  0
 12 16  1  0  0  0
 12 59  1  0  0  0
 13 17  2  0  0  0
 13 18  1  0  0  0
 14 17  1  0  0  0
 14 60  1  0  0  0
 15 19  1  0  0  0
 16 20  1  0  0  0
 16 61  1  0  0  0
 16 62  1  0  0  0
 18 63  1  0  0  0
 18 64  1  0  0  0
 19 21  2  0  0  0
 19 94  1  0  0  0
 19 95  1  0  0  0
 20 22  1  0  0  0
 22 23  1  0  0  0
 22 24  2  0  0  0
 22 96  1  0  0  0
 23 25  1  0  0  0
 25 26  1  0  0  0
 25 27  2  0  0  0
 25 97  1  0  0  0
 26 28  1  0  0  0
 28 29  1  0  0  0
 28 65  1  0  0  0
 28 66  1  0  0  0
 29 30  1  0  0  0
 29 31  1  0  0  0
 29 32  1  0  0  0
 30 33  1  0  0  0
 30 34  1  0  0  0
 30 67  1  0  0  0
 31 68  1  0  0  0
 31 69  1  0  0  0
 31 70  1  0  0  0
 32 71  1  0  0  0
 32 72  1  0  0  0
 32 73  1  0  0  0
 33 35  1  0  0  0
 33 36  2  0  0  0
 34 74  1  0  0  0
 35 37  1  0  0  0
 35 75  1  0  0  0
 37 38  1  0  0  0
 37 76  1  0  0  0
 37 77  1  0  0  0
 38 39  1  0  0  0
 38 78  1  0  0  0
 38 79  1  0  0  0
 39 40  1  0  0  0
 39 41  2  0  0  0
 40 42  1  0  0  0
 40 80  1  0  0  0
 42 43  1  0  0  0
 42 81  1  0  0  0
 42 82  1  0  0  0
 43 44  1  0  0  0
 43 83  1  0  0  0
 43 84  1  0  0  0
 44 45  1  0  0  0
 45 46  1  0  0  0
 45 47  2  0  0  0
 46 48  1  0  0  0
 46 49  2  0  0  0
 48 50  1  0  0  0
 48 51  1  0  0  0
 48 85  1  0  0  0
 49 52  1  0  0  0
 49 86  1  0  0  0
 50 53  1  0  0  0
 50 87  1  0  0  0
 50 88  1  0  0  0
 51 89  1  0  0  0
 52 53  1  0  0  0
 52 90  1  0  0  0
 52 91  1  0  0  0
 53 92  1  0  0  0
 53 93  1  0  0  0
M  CHG  4  94  -1  95  -1  96  -1  97  -1
M  END
> <i_ionizer_Ion_state_n>
30

> <i_ionizer_Tot_Q>
-4

> <s_ionizer_Ion_centers>
94_95_96_97

> <s_ionizer_Ion_types>
OM_OM_OM_OM

> <s_ionizer_Ion_ctrs_in>
21_22_26_30

> <r_ionizer_Ionization_penalty>
4.85714e-05

> <r_ionizer_Ionization_penalty_charging>
2.98356e-05

> <r_ionizer_Ionization_penalty_neutral>
1.87357e-05

> <s_st_Chirality_1>
2_R_6_1_5_54

> <s_st_Chirality_2>
5_R_11_2_10_56

> <s_st_Chirality_3>
10_R_15_5_12_57

> <s_st_Chirality_4>
12_R_6_10_16_59

> <s_st_Chirality_5>
30_R_34_33_29_67

> <s_st_Chirality_6>
48_R_51_46_50_85

> <s_st_EZ_1>
45_46_49_52_E

> <i_mmod_Serial_Number-OPLS-2005>
890

> <i_i_glide_lignum>
878

> <r_i_docking_score>
-8.00109

> <r_i_glide_gscore>
-8.00109

> <r_i_glide_lipo>
-1.25921

> <r_i_glide_hbond>
-2.29895

> <r_i_glide_metal>
0

> <r_i_glide_eburp>
0.298949

> <r_i_glide_evdw>
-49.8155

> <r_i_glide_ecoul>
-13.0996

> <r_i_glide_erotb>
0.455022

> <r_i_glide_esite>
0.0982848

> <r_i_glide_emodel>
-133.973

> <r_i_glide_energy>
-62.915

> <r_i_glide_einternal>
6.6755

> <i_i_glide_confnum>
1237

> <i_i_glide_posenum>
890

$$$$
C03451
                    3D
 Structure written by MMmdl.
 45 44  0  0  1  0            999 V2000
    1.5664    4.1401    2.3586 C   0  0  1  0  0  0
    0.7658    5.3498    2.5852 N   0  0  0  0  0  0
    3.0958    4.4114    2.3798 C   0  0  0  0  0  0
    1.0644    2.9763    3.2454 C   0  0  0  0  0  0
   -0.5703    5.4333    2.7081 C   0  0  0  0  0  0
    4.0480    2.8687    2.1652 S   0  0  0  0  0  0
    1.7187    1.8069    3.1301 N   0  0  0  0  0  0
    0.0971    3.1276    3.9910 O   0  0  0  0  0  0
   -1.1097    6.8202    3.0470 C   0  0  0  0  0  0
   -1.3493    4.5085    2.4840 O   0  0  0  0  0  0
    4.3863    2.4562    3.8982 C   0  0  0  0  0  0
    1.4217    0.5654    3.8344 C   0  0  0  0  0  0
   -1.7204    7.4357    1.7713 C   0  0  0  0  0  0
    4.0476    1.0144    4.2954 C   0  0  1  0  0  0
    4.8603    3.2616    4.6999 O   0  0  0  0  0  0
    0.9816   -0.4935    2.8228 C   0  0  0  0  0  0
   -0.7391    8.1333    0.8083 C   0  0  1  0  0  0
    3.8576    0.0818    3.0874 C   0  0  0  0  0  0
    5.0776    0.4957    5.1118 O   0  0  0  0  0  0
    1.7094   -1.5004    2.6875 O   0  0  0  0  0  0
    0.1700    7.1468    0.0594 C   0  0  0  0  0  0
    1.2887    6.8821    0.5548 O   0  0  0  0  0  0
    1.3012    3.8470    1.3432 H   0  0  0  0  0  0
    1.2645    6.2241    2.5039 H   0  0  0  0  0  0
    3.3866    5.1232    1.6065 H   0  0  0  0  0  0
    3.3880    4.8571    3.3311 H   0  0  0  0  0  0
    2.4250    1.7400    2.4122 H   0  0  0  0  0  0
   -1.8642    6.7385    3.8302 H   0  0  0  0  0  0
   -0.3030    7.4388    3.4421 H   0  0  0  0  0  0
    2.3176    0.2249    4.3540 H   0  0  0  0  0  0
    0.6433    0.6963    4.5878 H   0  0  0  0  0  0
   -2.2533    6.6564    1.2251 H   0  0  0  0  0  0
   -2.4842    8.1594    2.0628 H   0  0  0  0  0  0
    3.1266    1.0306    4.8791 H   0  0  0  0  0  0
   -0.1267    8.8380    1.3733 H   0  0  0  0  0  0
    3.5819   -0.9223    3.4108 H   0  0  0  0  0  0
    3.0652    0.4419    2.4302 H   0  0  0  0  0  0
    4.7707   -0.0016    2.4963 H   0  0  0  0  0  0
    4.8941   -0.4158    5.2831 H   0  0  0  0  0  0
   -0.8552    9.3443   -0.8336 H   0  0  0  0  0  0
   -2.0955    8.2610   -0.7081 H   0  0  0  0  0  0
   -0.1025   -0.3021    2.2275 O   0  5  0  0  0  0
   -1.4982    8.8969   -0.1968 N   0  3  0  0  0  0
   -2.0709    9.5902    0.2624 H   0  0  0  0  0  0
   -0.2882    6.6439   -0.9894 O   0  5  0  0  0  0
  1  2  1  0  0  0
  1  3  1  0  0  0
  1  4  1  0  0  0
  1 23  1  0  0  0
  2  5  1  0  0  0
  2 24  1  0  0  0
  3  6  1  0  0  0
  3 25  1  0  0  0
  3 26  1  0  0  0
  4  7  1  0  0  0
  4  8  2  0  0  0
  5  9  1  0  0  0
  5 10  2  0  0  0
  6 11  1  0  0  0
  7 12  1  0  0  0
  7 27  1  0  0  0
  9 13  1  0  0  0
  9 28  1  0  0  0
  9 29  1  0  0  0
 11 14  1  0  0  0
 11 15  2  0  0  0
 12 16  1  0  0  0
 12 30  1  0  0  0
 12 31  1  0  0  0
 13 17  1  0  0  0
 13 32  1  0  0  0
 13 33  1  0  0  0
 14 18  1  0  0  0
 14 19  1  0  0  0
 14 34  1  0  0  0
 16 20  2  0  0  0
 16 42  1  0  0  0
 17 21  1  0  0  0
 17 35  1  0  0  0
 17 43  1  0  0  0
 18 36  1  0  0  0
 18 37  1  0  0  0
 18 38  1  0  0  0
 19 39  1  0  0  0
 21 22  2  0  0  0
 21 45  1  0  0  0
 40 43  1  0  0  0
 41 43  1  0  0  0
 43 44  1  0  0  0
M  CHG  3  42  -1  43   1  45  -1
M  END
> <i_ionizer_Ion_state_n>
7

> <i_ionizer_Tot_Q>
-1

> <s_ionizer_Ion_centers>
42_43_45

> <s_ionizer_Ion_types>
OM_N5_OM

> <s_ionizer_Ion_ctrs_in>
20_23_24

> <r_ionizer_Ionization_penalty>
0.00137171

> <r_ionizer_Ionization_penalty_charging>
0.00137171

> <r_ionizer_Ionization_penalty_neutral>
0

> <s_st_Chirality_1>
1_R_2_3_4_23

> <s_st_Chirality_2>
14_R_19_11_18_34

> <s_st_Chirality_3>
17_S_43_21_13_35

> <i_mmod_Serial_Number-OPLS-2005>
545

> <i_i_glide_lignum>
539

> <r_i_docking_score>
-7.96726

> <r_i_glide_gscore>
-7.96726

> <r_i_glide_lipo>
-0.61932

> <r_i_glide_hbond>
-2.62664

> <r_i_glide_metal>
0

> <r_i_glide_eburp>
-1.32134

> <r_i_glide_evdw>
-33.9852

> <r_i_glide_ecoul>
-22.7395

> <r_i_glide_erotb>
1.85622

> <r_i_glide_esite>
-0.263426

> <r_i_glide_emodel>
-123.684

> <r_i_glide_energy>
-56.7247

> <r_i_glide_einternal>
13.7126

> <i_i_glide_confnum>
58

> <i_i_glide_posenum>
866

$$$$
C05635
                    3D
 Structure written by MMmdl.
 22 23  0  0  1  0            999 V2000
    2.9574    2.7690    3.3831 C   0  0  0  0  0  0
    4.2438    3.1561    3.8609 C   0  0  0  0  0  0
    2.3837    3.8878    2.6806 C   0  0  0  0  0  0
    2.5297    1.4515    3.6731 C   0  0  0  0  0  0
    4.4157    4.4617    3.4475 N   0  0  0  0  0  0
    5.0636    2.2784    4.5933 C   0  0  0  0  0  0
    3.3080    4.9002    2.7433 C   0  0  0  0  0  0
    1.0414    3.9523    2.0111 C   0  0  0  0  0  0
    3.3427    0.5632    4.4066 C   0  0  0  0  0  0
    4.6089    0.9755    4.8673 C   0  0  0  0  0  0
   -0.0308    3.9125    3.1002 C   0  0  0  0  0  0
    2.8992   -0.7000    4.6694 O   0  0  0  0  0  0
    0.3533    3.6998    4.2714 O   0  0  0  0  0  0
    1.5629    1.1242    3.3191 H   0  0  0  0  0  0
    5.2265    5.0388    3.6170 H   0  0  0  0  0  0
    6.0333    2.6011    4.9418 H   0  0  0  0  0  0
    3.2649    5.9005    2.3378 H   0  0  0  0  0  0
    0.9398    4.8659    1.4244 H   0  0  0  0  0  0
    0.8999    3.1154    1.3265 H   0  0  0  0  0  0
    5.2339    0.2968    5.4290 H   0  0  0  0  0  0
    3.5431   -1.2388    5.1024 H   0  0  0  0  0  0
   -1.2149    4.1000    2.7435 O   0  5  0  0  0  0
  1  2  1  0  0  0
  1  3  1  0  0  0
  1  4  2  0  0  0
  2  5  1  0  0  0
  2  6  2  0  0  0
  3  7  2  0  0  0
  3  8  1  0  0  0
  4  9  1  0  0  0
  4 14  1  0  0  0
  5  7  1  0  0  0
  5 15  1  0  0  0
  6 10  1  0  0  0
  6 16  1  0  0  0
  7 17  1  0  0  0
  8 11  1  0  0  0
  8 18  1  0  0  0
  8 19  1  0  0  0
  9 12  1  0  0  0
  9 10  2  0  0  0
 10 20  1  0  0  0
 11 13  2  0  0  0
 11 22  1  0  0  0
 12 21  1  0  0  0
M  CHG  1  22  -1
M  END
> <i_ionizer_Ion_state_n>
2

> <i_ionizer_Tot_Q>
-1

> <s_ionizer_Ion_centers>
22

> <s_ionizer_Ion_types>
OM

> <s_ionizer_Ion_ctrs_in>
13

> <r_ionizer_Ionization_penalty>
0.00118438

> <r_ionizer_Ionization_penalty_charging>
0.00059219

> <r_ionizer_Ionization_penalty_neutral>
0.00059219

> <i_mmod_Serial_Number-OPLS-2005>
762

> <i_i_glide_lignum>
753

> <r_i_docking_score>
-7.84136

> <r_i_glide_gscore>
-7.84136

> <r_i_glide_lipo>
-0.826664

> <r_i_glide_hbond>
-1.85

> <r_i_glide_metal>
0

> <r_i_glide_eburp>
-2.74712

> <r_i_glide_evdw>
-14.214

> <r_i_glide_ecoul>
-12.1617

> <r_i_glide_erotb>
0.50737

> <r_i_glide_esite>
-0.571665

> <r_i_glide_emodel>
-58.0201

> <r_i_glide_energy>
-26.3756

> <r_i_glide_einternal>
1.40535

> <i_i_glide_confnum>
2

> <i_i_glide_posenum>
779

$$$$
C02670
                    3D
 Structure written by MMmdl.
 20 21  0  0  1  0            999 V2000
    2.6436    1.9171    1.9463 C   0  0  1  0  0  0
    3.8308    1.3149    2.7000 C   0  0  1  0  0  0
    3.1905    2.3002    0.5712 C   0  0  2  0  0  0
    1.6899    0.8677    1.8670 O   0  0  0  0  0  0
    3.3246    0.0061    3.3010 C   0  0  2  0  0  0
    4.8046    1.0657    1.6962 O   0  0  0  0  0  0
    4.6933    2.0461    0.7213 C   0  0  1  0  0  0
    2.9002    3.6562    0.2999 O   0  0  0  0  0  0
    1.9855   -0.1999    2.6115 C   0  0  0  0  0  0
    3.1492    0.1025    4.6999 O   0  0  0  0  0  0
    5.2567    1.6293   -0.4995 O   0  0  0  0  0  0
    1.3001   -1.2122    2.7414 O   0  0  0  0  0  0
    2.2183    2.7594    2.4950 H   0  0  0  0  0  0
    4.2351    2.0087    3.4393 H   0  0  0  0  0  0
    2.7804    1.6510   -0.2048 H   0  0  0  0  0  0
    3.9987   -0.8223    3.0801 H   0  0  0  0  0  0
    5.2285    2.9347    1.0618 H   0  0  0  0  0  0
    3.4686    3.9476   -0.3970 H   0  0  0  0  0  0
    3.5351   -0.6620    5.1006 H   0  0  0  0  0  0
    4.8153    0.8375   -0.7669 H   0  0  0  0  0  0
  1  2  1  0  0  0
  1  3  1  0  0  0
  1  4  1  0  0  0
  1 13  1  0  0  0
  2  5  1  0  0  0
  2  6  1  0  0  0
  2 14  1  0  0  0
  3  7  1  0  0  0
  3  8  1  0  0  0
  3 15  1  0  0  0
  4  9  1  0  0  0
  5 10  1  0  0  0
  5  9  1  0  0  0
  5 16  1  0  0  0
  6  7  1  0  0  0
  7 11  1  0  0  0
  7 17  1  0  0  0
  8 18  1  0  0  0
  9 12  2  0  0  0
 10 19  1  0  0  0
 11 20  1  0  0  0
M  END
> <i_ionizer_Ion_state_n>
0

> <i_ionizer_Tot_Q>
0

> <s_ionizer_Ion_centers>


> <s_ionizer_Ion_types>


> <s_ionizer_Ion_ctrs_in>


> <r_ionizer_Ionization_penalty>
0

> <r_ionizer_Ionization_penalty_charging>
0

> <r_ionizer_Ionization_penalty_neutral>
0

> <s_st_Chirality_1>
1_S_4_3_2_13

> <s_st_Chirality_2>
2_S_6_5_1_14

> <s_st_Chirality_3>
3_R_8_7_1_15

> <s_st_Chirality_4>
5_R_10_9_2_16

> <s_st_Chirality_5>
7_R_6_11_3_17

> <i_mmod_Serial_Number-OPLS-2005>
504

> <i_i_glide_lignum>
499

> <r_i_docking_score>
-7.78085

> <r_i_glide_gscore>
-7.78085

> <r_i_glide_lipo>
-0.336903

> <r_i_glide_hbond>
-1.72099

> <r_i_glide_metal>
0

> <r_i_glide_eburp>
-2.45358

> <r_i_glide_evdw>
-17.1338

> <r_i_glide_ecoul>
-12.9033

> <r_i_glide_erotb>
0

> <r_i_glide_esite>
-0.608326

> <r_i_glide_emodel>
-41.3533

> <r_i_glide_energy>
-30.0372

> <r_i_glide_einternal>
2.38945

> <i_i_glide_confnum>
1

> <i_i_glide_posenum>
136

$$$$
C00951
                    3D
 Structure written by MMmdl.
 44 47  0  0  1  0            999 V2000
    3.0896    2.4588    3.0381 C   0  0  1  0  0  0
    2.4504    3.5554    2.1650 C   0  0  1  0  0  0
    2.1611    1.2486    3.2453 C   0  0  2  0  0  0
    4.4346    1.8460    2.6335 C   0  0  0  0  0  0
    1.1657    4.0664    2.8721 C   0  0  1  0  0  0
    3.3893    4.7349    1.8870 C   0  0  0  0  0  0
    0.8995    1.7437    3.9809 C   0  0  0  0  0  0
    3.1047    0.3589    4.0817 C   0  0  2  0  0  0
    1.7627    0.5236    1.9263 C   0  0  0  0  0  0
    4.4875    0.5154    3.4119 C   0  0  0  0  0  0
    0.5196    5.2400    2.1214 C   0  0  0  0  0  0
    0.2023    2.8938    3.2135 C   0  0  0  0  0  0
    2.7410    5.7224    0.9103 C   0  0  0  0  0  0
    2.7025   -0.9936    4.1751 O   0  0  0  0  0  0
    1.2797    6.0253    1.2119 C   0  0  0  0  0  0
   -0.8306    5.5935    2.3592 C   0  0  0  0  0  0
    0.6792    7.1145    0.5459 C   0  0  0  0  0  0
   -1.4215    6.6828    1.6922 C   0  0  0  0  0  0
   -0.6674    7.4435    0.7818 C   0  0  0  0  0  0
   -1.2358    8.4999    0.1319 O   0  0  0  0  0  0
    3.2655    2.9158    4.0151 H   0  0  0  0  0  0
    2.1844    3.1316    1.1970 H   0  0  0  0  0  0
    1.4730    4.4955    3.8272 H   0  0  0  0  0  0
    4.4677    1.6615    1.5591 H   0  0  0  0  0  0
    5.2715    2.4993    2.8823 H   0  0  0  0  0  0
    3.6174    5.2429    2.8250 H   0  0  0  0  0  0
    4.3418    4.3964    1.4789 H   0  0  0  0  0  0
    0.2032    0.9188    4.1356 H   0  0  0  0  0  0
    1.1691    2.0999    4.9760 H   0  0  0  0  0  0
    3.1657    0.7541    5.0972 H   0  0  0  0  0  0
    2.6266    0.1496    1.3779 H   0  0  0  0  0  0
    1.1247   -0.3358    2.1339 H   0  0  0  0  0  0
    1.2051    1.1581    1.2404 H   0  0  0  0  0  0
    4.6883   -0.3037    2.7198 H   0  0  0  0  0  0
    5.2838    0.5127    4.1568 H   0  0  0  0  0  0
   -0.6183    3.2409    3.8392 H   0  0  0  0  0  0
   -0.2556    2.5154    2.2998 H   0  0  0  0  0  0
    3.3115    6.6518    0.8939 H   0  0  0  0  0  0
    2.7876    5.3124   -0.0992 H   0  0  0  0  0  0
    3.3518   -1.4673    4.6721 H   0  0  0  0  0  0
   -1.4381    5.0445    3.0605 H   0  0  0  0  0  0
    1.2568    7.7037   -0.1516 H   0  0  0  0  0  0
   -2.4543    6.9322    1.8866 H   0  0  0  0  0  0
   -0.7973    9.3197    0.3003 H   0  0  0  0  0  0
  1  2  1  0  0  0
  1  3  1  0  0  0
  1  4  1  0  0  0
  1 21  1  0  0  0
  2  5  1  0  0  0
  2  6  1  0  0  0
  2 22  1  0  0  0
  3  7  1  0  0  0
  3  8  1  0  0  0
  3  9  1  0  0  0
  4 10  1  0  0  0
  4 24  1  0  0  0
  4 25  1  0  0  0
  5 11  1  0  0  0
  5 12  1  0  0  0
  5 23  1  0  0  0
  6 13  1  0  0  0
  6 26  1  0  0  0
  6 27  1  0  0  0
  7 12  1  0  0  0
  7 28  1  0  0  0
  7 29  1  0  0  0
  8 14  1  0  0  0
  8 10  1  0  0  0
  8 30  1  0  0  0
  9 31  1  0  0  0
  9 32  1  0  0  0
  9 33  1  0  0  0
 10 34  1  0  0  0
 10 35  1  0  0  0
 11 15  2  0  0  0
 11 16  1  0  0  0
 12 36  1  0  0  0
 12 37  1  0  0  0
 13 15  1  0  0  0
 13 38  1  0  0  0
 13 39  1  0  0  0
 14 40  1  0  0  0
 15 17  1  0  0  0
 16 18  2  0  0  0
 16 41  1  0  0  0
 17 19  2  0  0  0
 17 42  1  0  0  0
 18 19  1  0  0  0
 18 43  1  0  0  0
 19 20  1  0  0  0
 20 44  1  0  0  0
M  END
> <i_ionizer_Ion_state_n>
0

> <i_ionizer_Tot_Q>
0

> <s_ionizer_Ion_centers>


> <s_ionizer_Ion_types>


> <s_ionizer_Ion_ctrs_in>


> <r_ionizer_Ionization_penalty>
0.00059219

> <r_ionizer_Ionization_penalty_charging>
0

> <r_ionizer_Ionization_penalty_neutral>
0.00059219

> <s_st_Chirality_1>
1_S_3_2_4_21

> <s_st_Chirality_2>
2_R_1_5_6_22

> <s_st_Chirality_3>
3_S_8_1_7_9

> <s_st_Chirality_4>
5_S_11_2_12_23

> <s_st_Chirality_5>
8_S_14_3_10_30

> <i_mmod_Serial_Number-OPLS-2005>
363

> <i_i_glide_lignum>
359

> <r_i_docking_score>
-7.78021

> <r_i_glide_gscore>
-7.78021

> <r_i_glide_lipo>
-1.68576

> <r_i_glide_hbond>
-0.705421

> <r_i_glide_metal>
0

> <r_i_glide_eburp>
-1.72431

> <r_i_glide_evdw>
-31.2672

> <r_i_glide_ecoul>
-4.60794

> <r_i_glide_erotb>
0

> <r_i_glide_esite>
-0.702547

> <r_i_glide_emodel>
-50.9129

> <r_i_glide_energy>
-35.8751

> <r_i_glide_einternal>
2.88363

> <i_i_glide_confnum>
1

> <i_i_glide_posenum>
117

$$$$
C00357
                    3D
 Structure written by MMmdl.
 33 33  0  0  1  0            999 V2000
    4.5132    0.4977    1.6896 C   0  0  2  0  0  0
    3.9939   -0.2374    2.9414 C   0  0  2  0  0  0
    3.3293    0.7456    0.7227 C   0  0  2  0  0  0
    5.5711   -0.2687    1.0318 N   0  0  0  0  0  0
    2.8258    0.5418    3.5739 C   0  0  1  0  0  0
    5.0338   -0.2938    3.8999 O   0  0  0  0  0  0
    2.3620    1.5026    1.3863 O   0  0  0  0  0  0
    2.8149   -0.4668    0.2090 O   0  0  0  0  0  0
    6.4822    0.2355    0.1877 C   0  0  0  0  0  0
    1.7512    0.8803    2.5183 C   0  0  2  0  0  0
    2.2431   -0.2827    4.5686 O   0  0  0  0  0  0
    7.4568   -0.7625   -0.4270 C   0  0  0  0  0  0
    6.5562    1.4295   -0.1002 O   0  0  0  0  0  0
    0.6936    1.8696    3.0564 C   0  0  0  0  0  0
    1.2703    3.0887    3.4979 O   0  0  0  0  0  0
    0.3778    4.5993    3.1002 P   0  0  0  0  0  0
    0.9531    4.9953    1.7192 O   0  0  0  0  0  0
    4.9036    1.4741    1.9852 H   0  0  0  0  0  0
    3.6813   -1.2514    2.6853 H   0  0  0  0  0  0
    3.6534    1.3353   -0.1355 H   0  0  0  0  0  0
    5.6124   -1.2540    1.2466 H   0  0  0  0  0  0
    3.1884    1.4649    4.0293 H   0  0  0  0  0  0
    4.7837   -0.9302    4.5537 H   0  0  0  0  0  0
    3.0556   -0.5192   -0.7038 H   0  0  0  0  0  0
    1.2763   -0.0462    2.1980 H   0  0  0  0  0  0
    2.9370   -0.6387    5.1184 H   0  0  0  0  0  0
    8.1582   -0.2588   -1.0929 H   0  0  0  0  0  0
    8.0282   -1.2666    0.3529 H   0  0  0  0  0  0
    6.9180   -1.5145   -1.0040 H   0  0  0  0  0  0
   -0.0558    2.1037    2.3000 H   0  0  0  0  0  0
    0.1386    1.4208    3.8804 H   0  0  0  0  0  0
   -1.0835    4.1007    3.1000 O   0  5  0  0  0  0
    0.7800    5.5116    4.2798 O   0  5  0  0  0  0
  1  2  1  0  0  0
  1  3  1  0  0  0
  1  4  1  0  0  0
  1 18  1  0  0  0
  2  5  1  0  0  0
  2  6  1  0  0  0
  2 19  1  0  0  0
  3  7  1  0  0  0
  3  8  1  0  0  0
  3 20  1  0  0  0
  4  9  1  0  0  0
  4 21  1  0  0  0
  5 10  1  0  0  0
  5 11  1  0  0  0
  5 22  1  0  0  0
  6 23  1  0  0  0
  7 10  1  0  0  0
  8 24  1  0  0  0
  9 12  1  0  0  0
  9 13  2  0  0  0
 10 14  1  0  0  0
 10 25  1  0  0  0
 11 26  1  0  0  0
 12 27  1  0  0  0
 12 28  1  0  0  0
 12 29  1  0  0  0
 14 15  1  0  0  0
 14 30  1  0  0  0
 14 31  1  0  0  0
 15 16  1  0  0  0
 16 17  2  0  0  0
 16 32  1  0  0  0
 16 33  1  0  0  0
M  CHG  2  32  -1  33  -1
M  END
> <i_ionizer_Ion_state_n>
3

> <i_ionizer_Tot_Q>
-2

> <s_ionizer_Ion_centers>
32_33

> <s_ionizer_Ion_types>
OM_OM

> <s_ionizer_Ion_ctrs_in>
17_18

> <r_ionizer_Ionization_penalty>
1.49178e-05

> <r_ionizer_Ionization_penalty_charging>
1.49178e-05

> <r_ionizer_Ionization_penalty_neutral>
0

> <s_st_Chirality_1>
1_R_4_3_2_18

> <s_st_Chirality_2>
2_R_6_5_1_19

> <s_st_Chirality_3>
3_S_7_8_1_20

> <s_st_Chirality_4>
5_S_11_10_2_22

> <s_st_Chirality_5>
10_R_7_5_14_25

> <i_mmod_Serial_Number-OPLS-2005>
206

> <i_i_glide_lignum>
204

> <r_i_docking_score>
-7.69465

> <r_i_glide_gscore>
-7.69465

> <r_i_glide_lipo>
-0.626139

> <r_i_glide_hbond>
-1.93725

> <r_i_glide_metal>
0

> <r_i_glide_eburp>
-1.52139

> <r_i_glide_evdw>
-27.5176

> <r_i_glide_ecoul>
-13.9377

> <r_i_glide_erotb>
0.703377

> <r_i_glide_esite>
-0.718066

> <r_i_glide_emodel>
-86.6164

> <r_i_glide_energy>
-41.4553

> <r_i_glide_einternal>
9.11617

> <i_i_glide_confnum>
4

> <i_i_glide_posenum>
641

$$$$
C06212
                    3D
 Structure written by MMmdl.
 29 30  0  0  1  0            999 V2000
    3.6858    1.3115    3.7657 C   0  0  0  0  0  0
    3.1620    2.6119    3.5050 C   0  0  0  0  0  0
    5.0102    1.4633    4.2980 C   0  0  0  0  0  0
    2.8568    0.2037    3.4684 C   0  0  0  0  0  0
    4.1493    3.5125    3.8740 N   0  0  0  0  0  0
    1.8714    2.7959    2.9723 C   0  0  0  0  0  0
    5.2503    2.8120    4.3477 C   0  0  0  0  0  0
    5.9520    0.3759    4.7169 C   0  0  0  0  0  0
    1.5645    0.3799    2.9347 C   0  0  0  0  0  0
    4.0549    4.9554    3.7833 C   0  0  0  0  0  0
    1.0706    1.6753    2.6864 C   0  0  0  0  0  0
    6.3756    0.5147    6.1857 C   0  0  0  0  0  0
    0.7931   -0.7108    2.6592 O   0  0  0  0  0  0
    3.2215   -0.7956    3.6545 H   0  0  0  0  0  0
    1.4977    3.7914    2.7839 H   0  0  0  0  0  0
    6.1311    3.3377    4.6874 H   0  0  0  0  0  0
    5.4864   -0.5982    4.5606 H   0  0  0  0  0  0
    6.8358    0.3920    4.0777 H   0  0  0  0  0  0
    3.8904    5.2481    2.7460 H   0  0  0  0  0  0
    3.2206    5.3076    4.3905 H   0  0  0  0  0  0
    4.9740    5.4207    4.1409 H   0  0  0  0  0  0
    0.0804    1.8143    2.2775 H   0  0  0  0  0  0
    7.1021    1.3206    6.2972 H   0  0  0  0  0  0
    5.5150    0.7693    6.8055 H   0  0  0  0  0  0
    1.0693   -1.4896    3.1176 H   0  0  0  0  0  0
    7.2403   -0.6092    7.6594 H   0  0  0  0  0  0
    6.2994   -1.4822    6.6250 H   0  0  0  0  0  0
    6.9726   -0.7323    6.6931 N   0  3  0  0  0  0
    7.7897   -0.9635    6.1462 H   0  0  0  0  0  0
  1  2  1  0  0  0
  1  3  1  0  0  0
  1  4  2  0  0  0
  2  5  1  0  0  0
  2  6  2  0  0  0
  3  7  2  0  0  0
  3  8  1  0  0  0
  4  9  1  0  0  0
  4 14  1  0  0  0
  5 10  1  0  0  0
  5  7  1  0  0  0
  6 11  1  0  0  0
  6 15  1  0  0  0
  7 16  1  0  0  0
  8 12  1  0  0  0
  8 17  1  0  0  0
  8 18  1  0  0  0
  9 13  1  0  0  0
  9 11  2  0  0  0
 10 19  1  0  0  0
 10 20  1  0  0  0
 10 21  1  0  0  0
 11 22  1  0  0  0
 12 23  1  0  0  0
 12 24  1  0  0  0
 12 28  1  0  0  0
 13 25  1  0  0  0
 26 28  1  0  0  0
 27 28  1  0  0  0
 28 29  1  0  0  0
M  CHG  1  28   1
M  END
> <i_ionizer_Ion_state_n>
2

> <i_ionizer_Tot_Q>
1

> <s_ionizer_Ion_centers>
28

> <s_ionizer_Ion_types>
N5

> <s_ionizer_Ion_ctrs_in>
14

> <r_ionizer_Ionization_penalty>
0.000779521

> <r_ionizer_Ionization_penalty_charging>
0.000187331

> <r_ionizer_Ionization_penalty_neutral>
0.00059219

> <i_mmod_Serial_Number-OPLS-2005>
869

> <i_i_glide_lignum>
857

> <r_i_docking_score>
-7.60414

> <r_i_glide_gscore>
-7.60414

> <r_i_glide_lipo>
-1.09063

> <r_i_glide_hbond>
-1.00023

> <r_i_glide_metal>
0

> <r_i_glide_eburp>
-2.33898

> <r_i_glide_evdw>
-20.2906

> <r_i_glide_ecoul>
-8.12349

> <r_i_glide_erotb>
0.502657

> <r_i_glide_esite>
-1.24137

> <r_i_glide_emodel>
-49.1147

> <r_i_glide_energy>
-28.4141

> <r_i_glide_einternal>
1.85927

> <i_i_glide_confnum>
2

> <i_i_glide_posenum>
430

$$$$
C05400
                    3D
 Structure written by MMmdl.
 45 46  0  0  1  0            999 V2000
    3.7312    1.6783    1.2458 C   0  0  2  0  0  0
    4.7034    1.4211    2.2448 O   0  0  0  0  0  0
    3.2355    3.0013    1.1563 O   0  0  0  0  0  0
    2.6418    0.5835    1.1406 C   0  0  2  0  0  0
    4.2581    1.0206    3.5551 C   0  0  1  0  0  0
    2.6766    3.6117    2.3218 C   0  0  0  0  0  0
    2.1632    0.0872    2.5178 C   0  0  2  0  0  0
    3.1836   -0.4988    0.3857 O   0  0  0  0  0  0
    3.3638   -0.2371    3.4212 C   0  0  2  0  0  0
    5.5412    0.8105    4.3844 C   0  0  0  0  0  0
    1.4345    4.4026    1.8828 C   0  0  2  0  0  0
    1.3057   -1.0427    2.3608 O   0  0  0  0  0  0
    2.9041   -0.6792    4.6959 O   0  0  0  0  0  0
    5.2741    0.5017    5.7481 O   0  0  0  0  0  0
    1.7205    5.4232    0.7567 C   0  0  1  0  0  0
    0.8872    5.0739    3.0234 O   0  0  0  0  0  0
    0.4769    6.2875    0.4813 C   0  0  1  0  0  0
    2.8346    6.2297    1.0980 O   0  0  0  0  0  0
   -0.2991    5.7852    2.8160 C   0  0  1  0  0  0
   -0.0410    6.9118    1.7897 C   0  0  2  0  0  0
    0.8041    7.2955   -0.4574 O   0  0  0  0  0  0
   -1.3654    4.9561    2.4027 O   0  0  0  0  0  0
   -1.2154    7.6665    1.5536 O   0  0  0  0  0  0
    4.3311    1.6340    0.3272 H   0  0  0  0  0  0
    1.7975    0.9859    0.5792 H   0  0  0  0  0  0
    3.6869    1.8283    4.0078 H   0  0  0  0  0  0
    2.4040    2.8684    3.0651 H   0  0  0  0  0  0
    3.4108    4.2940    2.7490 H   0  0  0  0  0  0
    1.5736    0.8650    2.9976 H   0  0  0  0  0  0
    3.1633   -0.2476   -0.5487 H   0  0  0  0  0  0
    3.9509   -1.0420    2.9765 H   0  0  0  0  0  0
    6.1512    0.0187    3.9485 H   0  0  0  0  0  0
    6.1434    1.7191    4.3574 H   0  0  0  0  0  0
    0.7020    3.6864    1.5071 H   0  0  0  0  0  0
    0.7185   -1.0890    3.1277 H   0  0  0  0  0  0
    3.5914   -1.2286    5.0963 H   0  0  0  0  0  0
    5.0468   -0.4358    5.8141 H   0  0  0  0  0  0
    1.9886    4.8853   -0.1536 H   0  0  0  0  0  0
   -0.3011    5.6644    0.0377 H   0  0  0  0  0  0
    3.5851    5.6597    1.1811 H   0  0  0  0  0  0
   -0.5893    6.2089    3.7780 H   0  0  0  0  0  0
    0.7122    7.5802    2.2098 H   0  0  0  0  0  0
    0.6612    8.1336   -0.0427 H   0  0  0  0  0  0
   -1.2396    4.7657    1.4849 H   0  0  0  0  0  0
   -0.9731    8.4753    1.1282 H   0  0  0  0  0  0
  1  2  1  0  0  0
  1  3  1  0  0  0
  1  4  1  0  0  0
  1 24  1  0  0  0
  2  5  1  0  0  0
  3  6  1  0  0  0
  4  7  1  0  0  0
  4  8  1  0  0  0
  4 25  1  0  0  0
  5  9  1  0  0  0
  5 10  1  0  0  0
  5 26  1  0  0  0
  6 11  1  0  0  0
  6 27  1  0  0  0
  6 28  1  0  0  0
  7 12  1  0  0  0
  7  9  1  0  0  0
  7 29  1  0  0  0
  8 30  1  0  0  0
  9 13  1  0  0  0
  9 31  1  0  0  0
 10 14  1  0  0  0
 10 32  1  0  0  0
 10 33  1  0  0  0
 11 15  1  0  0  0
 11 16  1  0  0  0
 11 34  1  0  0  0
 12 35  1  0  0  0
 13 36  1  0  0  0
 14 37  1  0  0  0
 15 17  1  0  0  0
 15 18  1  0  0  0
 15 38  1  0  0  0
 16 19  1  0  0  0
 17 20  1  0  0  0
 17 21  1  0  0  0
 17 39  1  0  0  0
 18 40  1  0  0  0
 19 22  1  0  0  0
 19 20  1  0  0  0
 19 41  1  0  0  0
 20 23  1  0  0  0
 20 42  1  0  0  0
 21 43  1  0  0  0
 22 44  1  0  0  0
 23 45  1  0  0  0
M  END
> <i_ionizer_Ion_state_n>
0

> <i_ionizer_Tot_Q>
0

> <s_ionizer_Ion_centers>


> <s_ionizer_Ion_types>


> <s_ionizer_Ion_ctrs_in>


> <r_ionizer_Ionization_penalty>
0

> <r_ionizer_Ionization_penalty_charging>
0

> <r_ionizer_Ionization_penalty_neutral>
0

> <s_st_Chirality_1>
1_S_2_3_4_24

> <s_st_Chirality_2>
4_S_8_1_7_25

> <s_st_Chirality_3>
5_R_2_9_10_26

> <s_st_Chirality_4>
7_S_12_4_9_29

> <s_st_Chirality_5>
9_R_13_7_5_31

> <s_st_Chirality_6>
11_R_16_15_6_34

> <s_st_Chirality_7>
15_S_18_17_11_38

> <s_st_Chirality_8>
17_S_21_20_15_39

> <s_st_Chirality_9>
19_S_16_22_20_41

> <s_st_Chirality_10>
20_R_23_19_17_42

> <i_mmod_Serial_Number-OPLS-2005>
684

> <i_i_glide_lignum>
677

> <r_i_docking_score>
-7.56682

> <r_i_glide_gscore>
-7.56682

> <r_i_glide_lipo>
-0.923625

> <r_i_glide_hbond>
-1.63742

> <r_i_glide_metal>
0

> <r_i_glide_eburp>
-1.19468

> <r_i_glide_evdw>
-27.0313

> <r_i_glide_ecoul>
-22.0383

> <r_i_glide_erotb>
0.739756

> <r_i_glide_esite>
-0.18452

> <r_i_glide_emodel>
-74.7863

> <r_i_glide_energy>
-49.0696

> <r_i_glide_einternal>
5.07581

> <i_i_glide_confnum>
1

> <i_i_glide_posenum>
354

$$$$
C03684
                    3D
 Structure written by MMmdl.
 28 29  0  0  1  0            999 V2000
    4.0156    2.7190    3.7144 C   0  0  0  0  0  0
    3.2223    1.8468    3.0531 C   0  0  0  0  0  0
    3.9703    4.0761    3.4607 N   0  0  0  0  0  0
    4.9377    2.3222    4.6849 N   0  0  0  0  0  0
    2.3131    2.2925    2.1087 N   0  0  0  0  0  0
    3.3210    0.4151    3.3504 C   0  0  0  0  0  0
    3.1890    4.6156    2.3504 C   0  0  0  0  0  0
    5.0320    1.0579    4.9559 C   0  0  0  0  0  0
    1.9812    3.7100    1.9561 C   0  0  2  0  0  0
    4.2372    0.1062    4.3001 N   0  0  0  0  0  0
    2.6456   -0.4572    2.8063 O   0  0  0  0  0  0
    5.8873    0.5000    5.8830 N   0  0  0  0  0  0
    0.7271    4.0633    2.7867 C   0  0  0  0  0  0
   -0.2947    5.0462    2.1748 C   0  0  0  0  0  0
    0.4990    3.5880    3.9000 O   0  0  0  0  0  0
    0.2089    6.2050    1.3172 C   0  0  0  0  0  0
   -1.4998    4.8994    2.3760 O   0  0  0  0  0  0
    4.5903    4.6993    3.9574 H   0  0  0  0  0  0
    1.7234    1.6129    1.6494 H   0  0  0  0  0  0
    2.8643    5.6294    2.5876 H   0  0  0  0  0  0
    3.8613    4.7012    1.4965 H   0  0  0  0  0  0
    1.7637    3.8948    0.9045 H   0  0  0  0  0  0
    4.3426   -0.8676    4.5412 H   0  0  0  0  0  0
    6.5253    1.0493    6.4407 H   0  0  0  0  0  0
    5.9443   -0.4885    6.0793 H   0  0  0  0  0  0
   -0.6311    6.7925    0.9460 H   0  0  0  0  0  0
    0.8517    6.8638    1.9010 H   0  0  0  0  0  0
    0.7693    5.8351    0.4590 H   0  0  0  0  0  0
  1  2  2  0  0  0
  1  3  1  0  0  0
  1  4  1  0  0  0
  2  5  1  0  0  0
  2  6  1  0  0  0
  3  7  1  0  0  0
  3 18  1  0  0  0
  4  8  2  0  0  0
  5  9  1  0  0  0
  5 19  1  0  0  0
  6 10  1  0  0  0
  6 11  2  0  0  0
  7  9  1  0  0  0
  7 20  1  0  0  0
  7 21  1  0  0  0
  8 12  1  0  0  0
  8 10  1  0  0  0
  9 13  1  0  0  0
  9 22  1  0  0  0
 10 23  1  0  0  0
 12 24  1  0  0  0
 12 25  1  0  0  0
 13 14  1  0  0  0
 13 15  2  0  0  0
 14 16  1  0  0  0
 14 17  2  0  0  0
 16 26  1  0  0  0
 16 27  1  0  0  0
 16 28  1  0  0  0
M  END
> <i_ionizer_Ion_state_n>
0

> <i_ionizer_Tot_Q>
0

> <s_ionizer_Ion_centers>


> <s_ionizer_Ion_types>


> <s_ionizer_Ion_ctrs_in>


> <r_ionizer_Ionization_penalty>
0

> <r_ionizer_Ionization_penalty_charging>
0

> <r_ionizer_Ionization_penalty_neutral>
0

> <s_st_Chirality_1>
9_R_5_13_7_22

> <i_mmod_Serial_Number-OPLS-2005>
560

> <i_i_glide_lignum>
554

> <r_i_docking_score>
-7.51509

> <r_i_glide_gscore>
-7.51509

> <r_i_glide_lipo>
-0.538482

> <r_i_glide_hbond>
-1.66213

> <r_i_glide_metal>
0

> <r_i_glide_eburp>
-1.99076

> <r_i_glide_evdw>
-32.1916

> <r_i_glide_ecoul>
-11.4355

> <r_i_glide_erotb>
0.350021

> <r_i_glide_esite>
0.0451464

> <r_i_glide_emodel>
-70.1735

> <r_i_glide_energy>
-43.6271

> <r_i_glide_einternal>
1.77115

> <i_i_glide_confnum>
1

> <i_i_glide_posenum>
428

$$$$
C05841
                    3D
 Structure written by MMmdl.
 31 32  0  0  1  0            999 V2000
    4.0591    2.1608    2.6430 C   0  0  2  0  0  0
    3.2233    3.3402    2.2498 N   0  3  0  0  0  0
    3.3392    0.9760    2.2687 O   0  0  0  0  0  0
    4.1444    2.0775    4.1623 C   0  0  1  0  0  0
    1.8591    3.4216    2.6358 C   0  0  0  0  0  0
    3.7480    4.4082    1.4688 C   0  0  0  0  0  0
    3.3993   -0.0017    3.2692 C   0  0  1  0  0  0
    4.2116    0.5904    4.4308 C   0  0  1  0  0  0
    5.3025    2.7332    4.6428 O   0  0  0  0  0  0
    1.0447    4.5157    2.2691 C   0  0  0  0  0  0
    2.9474    5.5033    1.0982 C   0  0  0  0  0  0
    1.9594   -0.3232    3.7001 C   0  0  0  0  0  0
    5.5384    0.1001    4.4796 O   0  0  0  0  0  0
    1.6011    5.5575    1.4969 C   0  0  0  0  0  0
   -0.3953    4.5638    2.6973 C   0  0  0  0  0  0
    1.3008   -1.0719    2.7000 O   0  0  0  0  0  0
   -0.8094    3.6999    3.5016 O   0  0  0  0  0  0
    5.0282    2.3223    2.1680 H   0  0  0  0  0  0
    3.2704    2.5283    4.6355 H   0  0  0  0  0  0
    1.4667    2.6031    3.2221 H   0  0  0  0  0  0
    4.7833    4.3569    1.1668 H   0  0  0  0  0  0
    3.9071   -0.9027    2.9192 H   0  0  0  0  0  0
    3.7151    0.3664    5.3759 H   0  0  0  0  0  0
    6.0564    2.2674    4.3095 H   0  0  0  0  0  0
    3.3658    6.3044    0.5062 H   0  0  0  0  0  0
    1.9462   -0.8776    4.6390 H   0  0  0  0  0  0
    1.4034    0.6005    3.8631 H   0  0  0  0  0  0
    5.5154   -0.7778    4.8331 H   0  0  0  0  0  0
    0.9993    6.4061    1.2033 H   0  0  0  0  0  0
    0.4699   -1.3670    3.0415 H   0  0  0  0  0  0
   -1.1324    5.4635    2.2370 O   0  5  0  0  0  0
  1  2  1  0  0  0
  1  3  1  0  0  0
  1  4  1  0  0  0
  1 18  1  0  0  0
  2  5  2  0  0  0
  2  6  1  0  0  0
  3  7  1  0  0  0
  4  8  1  0  0  0
  4  9  1  0  0  0
  4 19  1  0  0  0
  5 10  1  0  0  0
  5 20  1  0  0  0
  6 11  2  0  0  0
  6 21  1  0  0  0
  7 12  1  0  0  0
  7  8  1  0  0  0
  7 22  1  0  0  0
  8 13  1  0  0  0
  8 23  1  0  0  0
  9 24  1  0  0  0
 10 14  2  0  0  0
 10 15  1  0  0  0
 11 14  1  0  0  0
 11 25  1  0  0  0
 12 16  1  0  0  0
 12 26  1  0  0  0
 12 27  1  0  0  0
 13 28  1  0  0  0
 14 29  1  0  0  0
 15 17  2  0  0  0
 15 31  1  0  0  0
 16 30  1  0  0  0
M  CHG  2   2   1  31  -1
M  END
> <i_ionizer_Ion_state_n>
1

> <i_ionizer_Tot_Q>
0

> <s_ionizer_Ion_centers>
31

> <s_ionizer_Ion_types>
OM

> <s_ionizer_Ion_ctrs_in>
17

> <r_ionizer_Ionization_penalty>
0.00059219

> <r_ionizer_Ionization_penalty_charging>
0.00059219

> <r_ionizer_Ionization_penalty_neutral>
0

> <s_st_Chirality_1>
1_R_3_2_4_18

> <s_st_Chirality_2>
4_R_9_1_8_19

> <s_st_Chirality_3>
7_R_3_8_12_22

> <s_st_Chirality_4>
8_R_13_4_7_23

> <i_mmod_Serial_Number-OPLS-2005>
809

> <i_i_glide_lignum>
800

> <r_i_docking_score>
-7.48319

> <r_i_glide_gscore>
-7.48319

> <r_i_glide_lipo>
-0.848636

> <r_i_glide_hbond>
-1.92025

> <r_i_glide_metal>
0

> <r_i_glide_eburp>
-1.85432

> <r_i_glide_evdw>
-21.486

> <r_i_glide_ecoul>
-11.6055

> <r_i_glide_erotb>
0.617659

> <r_i_glide_esite>
-0.598216

> <r_i_glide_emodel>
-66.1525

> <r_i_glide_energy>
-33.0915

> <r_i_glide_einternal>
3.38972

> <i_i_glide_confnum>
16

> <i_i_glide_posenum>
131

$$$$
C05141
                    3D
 Structure written by MMmdl.
 45 48  0  0  1  0            999 V2000
    3.1227    2.2022    2.9268 C   0  0  1  0  0  0
    2.6242    3.4862    2.2563 C   0  0  1  0  0  0
    2.1739    1.0199    2.6279 C   0  0  1  0  0  0
    4.5214    1.6495    2.6624 C   0  0  0  0  0  0
    1.3266    3.9353    2.9644 C   0  0  1  0  0  0
    3.5767    4.6863    2.2260 C   0  0  0  0  0  0
    2.9082   -0.0629    3.4537 C   0  0  2  0  0  0
    0.7180    1.3598    3.0655 C   0  0  0  0  0  0
    2.1346    0.6096    1.1226 C   0  0  0  0  0  0
    4.4197    0.2017    3.1991 C   0  0  2  0  0  0
    0.6114    4.9414    2.0676 C   0  0  0  0  0  0
    0.5211    2.7798    3.6474 C   0  0  0  0  0  0
    2.9466    5.8694    1.4498 C   0  0  0  0  0  0
    2.5357   -1.3808    3.0973 O   0  0  0  0  0  0
    5.1405    0.0997    4.4111 O   0  0  0  0  0  0
    1.4132    5.8907    1.3757 C   0  0  0  0  0  0
   -0.7948    4.9801    1.9182 C   0  0  0  0  0  0
    0.7970    6.8643    0.5623 C   0  0  0  0  0  0
   -1.3971    5.9550    1.1007 C   0  0  0  0  0  0
   -0.6028    6.8996    0.4252 C   0  0  0  0  0  0
   -1.1859    7.8456   -0.3665 O   0  0  0  0  0  0
    3.1174    2.4003    4.0017 H   0  0  0  0  0  0
    2.4060    3.2553    1.2156 H   0  0  0  0  0  0
    1.6213    4.5539    3.8143 H   0  0  0  0  0  0
    4.7461    1.6550    1.5957 H   0  0  0  0  0  0
    5.2958    2.2377    3.1570 H   0  0  0  0  0  0
    3.7930    4.9956    3.2494 H   0  0  0  0  0  0
    4.5375    4.4211    1.7839 H   0  0  0  0  0  0
    2.6747    0.0818    4.5106 H   0  0  0  0  0  0
    0.0416    1.2656    2.2150 H   0  0  0  0  0  0
    0.3626    0.6213    3.7849 H   0  0  0  0  0  0
    3.1151    0.3668    0.7157 H   0  0  0  0  0  0
    1.5126   -0.2743    0.9779 H   0  0  0  0  0  0
    1.6999    1.3796    0.4871 H   0  0  0  0  0  0
    4.8377   -0.4927    2.4687 H   0  0  0  0  0  0
    0.8912    2.7172    4.6720 H   0  0  0  0  0  0
   -0.5332    3.0049    3.7861 H   0  0  0  0  0  0
    3.3011    6.8150    1.8614 H   0  0  0  0  0  0
    3.3081    5.8337    0.4214 H   0  0  0  0  0  0
    3.1104   -1.9874    3.5380 H   0  0  0  0  0  0
    4.9611   -0.7424    4.8003 H   0  0  0  0  0  0
   -1.4402    4.2771    2.4179 H   0  0  0  0  0  0
    1.4033    7.5849    0.0327 H   0  0  0  0  0  0
   -2.4721    5.9742    0.9968 H   0  0  0  0  0  0
   -0.8126    8.7062   -0.2538 H   0  0  0  0  0  0
  1  2  1  0  0  0
  1  3  1  0  0  0
  1  4  1  0  0  0
  1 22  1  0  0  0
  2  5  1  0  0  0
  2  6  1  0  0  0
  2 23  1  0  0  0
  3  7  1  0  0  0
  3  8  1  0  0  0
  3  9  1  0  0  0
  4 10  1  0  0  0
  4 25  1  0  0  0
  4 26  1  0  0  0
  5 11  1  0  0  0
  5 12  1  0  0  0
  5 24  1  0  0  0
  6 13  1  0  0  0
  6 27  1  0  0  0
  6 28  1  0  0  0
  7 14  1  0  0  0
  7 10  1  0  0  0
  7 29  1  0  0  0
  8 12  1  0  0  0
  8 30  1  0  0  0
  8 31  1  0  0  0
  9 32  1  0  0  0
  9 33  1  0  0  0
  9 34  1  0  0  0
 10 15  1  0  0  0
 10 35  1  0  0  0
 11 16  2  0  0  0
 11 17  1  0  0  0
 12 36  1  0  0  0
 12 37  1  0  0  0
 13 16  1  0  0  0
 13 38  1  0  0  0
 13 39  1  0  0  0
 14 40  1  0  0  0
 15 41  1  0  0  0
 16 18  1  0  0  0
 17 19  2  0  0  0
 17 42  1  0  0  0
 18 20  2  0  0  0
 18 43  1  0  0  0
 19 20  1  0  0  0
 19 44  1  0  0  0
 20 21  1  0  0  0
 21 45  1  0  0  0
M  END
> <i_ionizer_Ion_state_n>
0

> <i_ionizer_Tot_Q>
0

> <s_ionizer_Ion_centers>


> <s_ionizer_Ion_types>


> <s_ionizer_Ion_ctrs_in>


> <r_ionizer_Ionization_penalty>
0.00059219

> <r_ionizer_Ionization_penalty_charging>
0

> <r_ionizer_Ionization_penalty_neutral>
0.00059219

> <s_st_Chirality_1>
1_S_3_2_4_22

> <s_st_Chirality_2>
2_R_1_5_6_23

> <s_st_Chirality_3>
3_S_7_1_8_9

> <s_st_Chirality_4>
5_S_11_2_12_24

> <s_st_Chirality_5>
7_R_14_10_3_29

> <s_st_Chirality_6>
10_R_15_7_4_35

> <i_mmod_Serial_Number-OPLS-2005>
638

> <i_i_glide_lignum>
631

> <r_i_docking_score>
-7.47987

> <r_i_glide_gscore>
-7.47987

> <r_i_glide_lipo>
-1.69484

> <r_i_glide_hbond>
-0.466015

> <r_i_glide_metal>
0

> <r_i_glide_eburp>
-1.6031

> <r_i_glide_evdw>
-27.9818

> <r_i_glide_ecoul>
-6.62631

> <r_i_glide_erotb>
0

> <r_i_glide_esite>
-0.814726

> <r_i_glide_emodel>
-50.8044

> <r_i_glide_energy>
-34.6082

> <r_i_glide_einternal>
2.48213

> <i_i_glide_confnum>
1

> <i_i_glide_posenum>
739

$$$$
C00954
                    3D
 Structure written by MMmdl.
 21 22  0  0  1  0            999 V2000
    3.0119    2.4500    3.4261 C   0  0  0  0  0  0
    4.2106    2.9547    4.0106 C   0  0  0  0  0  0
    2.3106    3.5509    2.8171 C   0  0  0  0  0  0
    2.7668    1.0617    3.5506 C   0  0  0  0  0  0
    4.2092    4.3098    3.7479 N   0  0  0  0  0  0
    5.1193    2.1214    4.6884 C   0  0  0  0  0  0
    3.0776    4.6675    3.0361 C   0  0  0  0  0  0
    0.9984    3.5048    2.0886 C   0  0  0  0  0  0
    3.6710    0.2177    4.2274 C   0  0  0  0  0  0
    4.8459    0.7455    4.7968 C   0  0  0  0  0  0
   -0.1206    3.6462    3.1208 C   0  0  0  0  0  0
   -1.2140    4.1007    2.7180 O   0  0  0  0  0  0
    1.8717    0.6444    3.1126 H   0  0  0  0  0  0
    4.9221    4.9704    4.0211 H   0  0  0  0  0  0
    6.0189    2.5334    5.1208 H   0  0  0  0  0  0
    2.9072    5.6917    2.7378 H   0  0  0  0  0  0
    0.9299    4.3088    1.3551 H   0  0  0  0  0  0
    0.8794    2.5663    1.5461 H   0  0  0  0  0  0
    3.4619   -0.8390    4.3073 H   0  0  0  0  0  0
    5.5361    0.0951    5.3138 H   0  0  0  0  0  0
    0.1350    3.2924    4.2930 O   0  5  0  0  0  0
  1  2  2  0  0  0
  1  3  1  0  0  0
  1  4  1  0  0  0
  2  5  1  0  0  0
  2  6  1  0  0  0
  3  7  2  0  0  0
  3  8  1  0  0  0
  4  9  2  0  0  0
  4 13  1  0  0  0
  5  7  1  0  0  0
  5 14  1  0  0  0
  6 10  2  0  0  0
  6 15  1  0  0  0
  7 16  1  0  0  0
  8 11  1  0  0  0
  8 17  1  0  0  0
  8 18  1  0  0  0
  9 10  1  0  0  0
  9 19  1  0  0  0
 10 20  1  0  0  0
 11 12  2  0  0  0
 11 21  1  0  0  0
M  CHG  1  21  -1
M  END
> <i_ionizer_Ion_state_n>
1

> <i_ionizer_Tot_Q>
-1

> <s_ionizer_Ion_centers>
21

> <s_ionizer_Ion_types>
OM

> <s_ionizer_Ion_ctrs_in>
12

> <r_ionizer_Ionization_penalty>
0.00059219

> <r_ionizer_Ionization_penalty_charging>
0.00059219

> <r_ionizer_Ionization_penalty_neutral>
0

> <i_mmod_Serial_Number-OPLS-2005>
364

> <i_i_glide_lignum>
360

> <r_i_docking_score>
-7.458

> <r_i_glide_gscore>
-7.458

> <r_i_glide_lipo>
-0.831911

> <r_i_glide_hbond>
-1.4

> <r_i_glide_metal>
0

> <r_i_glide_eburp>
-2.86833

> <r_i_glide_evdw>
-16.8181

> <r_i_glide_ecoul>
-6.59346

> <r_i_glide_erotb>
0

> <r_i_glide_esite>
-0.352964

> <r_i_glide_emodel>
-52.8006

> <r_i_glide_energy>
-23.4116

> <r_i_glide_einternal>
0.868906

> <i_i_glide_confnum>
1

> <i_i_glide_posenum>
281

$$$$
C04006
                    3D
 Structure written by MMmdl.
 27 27  0  0  1  0            999 V2000
   -0.0353    4.2528    2.8520 P   0  0  0  0  0  0
    0.5257    2.6489    2.2993 O   0  0  0  0  0  0
    0.6629    5.1979    1.8485 O   0  0  0  0  0  0
    1.7602    2.2113    2.8469 C   0  0  0  0  0  0
    1.4721    0.9579    3.6904 C   0  0  2  0  0  0
    2.8055    1.9711    1.7389 C   0  0  2  0  0  0
    2.7830    0.4452    4.3149 C   0  0  2  0  0  0
    0.9362   -0.0655    2.8678 O   0  0  0  0  0  0
    4.1000    1.3234    2.2984 C   0  0  1  0  0  0
    3.1670    3.2405    1.2288 O   0  0  0  0  0  0
    3.8377    0.1167    3.2343 C   0  0  0  0  0  0
    2.5075   -0.7002    5.1005 O   0  0  0  0  0  0
    4.8723    0.8630    1.2033 O   0  0  0  0  0  0
    5.0472   -0.2068    3.8979 O   0  0  0  0  0  0
    2.1555    2.9692    3.5262 H   0  0  0  0  0  0
    0.7484    1.1973    4.4709 H   0  0  0  0  0  0
    2.3695    1.3585    0.9484 H   0  0  0  0  0  0
    3.1760    1.2146    4.9817 H   0  0  0  0  0  0
    1.5868   -0.2786    2.2161 H   0  0  0  0  0  0
    4.6670    2.0800    2.8447 H   0  0  0  0  0  0
    3.7087    3.1070    0.4558 H   0  0  0  0  0  0
    3.5122   -0.7462    2.6505 H   0  0  0  0  0  0
    3.3351   -1.0566    5.3878 H   0  0  0  0  0  0
    4.3842    0.1922    0.7526 H   0  0  0  0  0  0
    4.8737   -0.9051    4.5100 H   0  0  0  0  0  0
   -1.5657    4.1054    2.7001 O   0  5  0  0  0  0
    0.5001    4.2858    4.2997 O   0  5  0  0  0  0
  1  2  1  0  0  0
  1  3  2  0  0  0
  1 26  1  0  0  0
  1 27  1  0  0  0
  2  4  1  0  0  0
  4  5  1  0  0  0
  4  6  1  0  0  0
  4 15  1  0  0  0
  5  7  1  0  0  0
  5  8  1  0  0  0
  5 16  1  0  0  0
  6  9  1  0  0  0
  6 10  1  0  0  0
  6 17  1  0  0  0
  7 11  1  0  0  0
  7 12  1  0  0  0
  7 18  1  0  0  0
  8 19  1  0  0  0
  9 13  1  0  0  0
  9 11  1  0  0  0
  9 20  1  0  0  0
 10 21  1  0  0  0
 11 14  1  0  0  0
 11 22  1  0  0  0
 12 23  1  0  0  0
 13 24  1  0  0  0
 14 25  1  0  0  0
M  CHG  2  26  -1  27  -1
M  END
> <i_ionizer_Ion_state_n>
3

> <i_ionizer_Tot_Q>
-2

> <s_ionizer_Ion_centers>
26_27

> <s_ionizer_Ion_types>
OM_OM

> <s_ionizer_Ion_ctrs_in>
3_4

> <r_ionizer_Ionization_penalty>
1.49178e-05

> <r_ionizer_Ionization_penalty_charging>
1.49178e-05

> <r_ionizer_Ionization_penalty_neutral>
0

> <s_st_Chirality_1>
5_S_8_4_7_16

> <s_st_Chirality_2>
6_S_10_4_9_17

> <s_st_Chirality_3>
7_S_12_5_11_18

> <s_st_Chirality_4>
9_R_13_6_11_20

> <i_mmod_Serial_Number-OPLS-2005>
575

> <i_i_glide_lignum>
569

> <r_i_docking_score>
-7.43977

> <r_i_glide_gscore>
-7.43977

> <r_i_glide_lipo>
-0.53481

> <r_i_glide_hbond>
-2.17788

> <r_i_glide_metal>
0

> <r_i_glide_eburp>
-2.2324

> <r_i_glide_evdw>
-18.9108

> <r_i_glide_ecoul>
-15.4268

> <r_i_glide_erotb>
0.3029

> <r_i_glide_esite>
0.257977

> <r_i_glide_emodel>
-71.9018

> <r_i_glide_energy>
-34.3376

> <r_i_glide_einternal>
2.80052

> <i_i_glide_confnum>
1

> <i_i_glide_posenum>
758

$$$$
C01235
                    3D
 Structure written by MMmdl.
 45 46  0  0  1  0            999 V2000
    1.5083    4.4027    1.8461 C   0  0  1  0  0  0
    2.7551    3.7938    2.2170 O   0  0  0  0  0  0
    0.9140    5.1133    3.0792 C   0  0  1  0  0  0
    1.7874    5.3851    0.6889 C   0  0  1  0  0  0
    2.7481    2.3859    2.2849 C   0  0  1  0  0  0
   -0.3479    5.9295    2.7050 C   0  0  2  0  0  0
    0.4973    4.1168    3.9933 O   0  0  0  0  0  0
    0.4811    6.0999    0.2905 C   0  0  1  0  0  0
    2.7272    6.3638    1.1002 O   0  0  0  0  0  0
    1.4676    1.8253    2.4777 O   0  0  0  0  0  0
    3.3840    1.7753    1.0149 C   0  0  1  0  0  0
   -0.1386    6.8605    1.4866 C   0  0  1  0  0  0
   -0.6915    6.7380    3.8144 O   0  0  0  0  0  0
    0.7519    6.9777   -0.7877 O   0  0  0  0  0  0
    1.4271    0.4330    2.8577 C   0  0  1  0  0  0
    3.0283    0.2721    0.8920 C   0  0  2  0  0  0
    2.9203    2.4884   -0.1294 O   0  0  0  0  0  0
   -1.4082    7.3515    1.0958 O   0  0  0  0  0  0
    2.6353   -0.3427    2.2492 C   0  0  1  0  0  0
    1.2715    0.3592    4.3891 C   0  0  0  0  0  0
    4.0907   -0.4673    0.2948 O   0  0  0  0  0  0
    3.7563   -0.3807    3.1342 O   0  0  0  0  0  0
    0.8922   -0.9434    4.8200 O   0  0  0  0  0  0
    0.8014    3.6435    1.5036 H   0  0  0  0  0  0
    1.6649    5.7539    3.5447 H   0  0  0  0  0  0
    2.1953    4.8531   -0.1708 H   0  0  0  0  0  0
    3.3366    2.1408    3.1792 H   0  0  0  0  0  0
   -1.1715    5.2449    2.4918 H   0  0  0  0  0  0
    1.2240    3.5267    4.1276 H   0  0  0  0  0  0
   -0.2261    5.3497   -0.0674 H   0  0  0  0  0  0
    2.3034    6.9220    1.7352 H   0  0  0  0  0  0
    4.4635    1.9118    1.0929 H   0  0  0  0  0  0
    0.4977    7.7024    1.7656 H   0  0  0  0  0  0
   -1.2795    7.4130    3.5092 H   0  0  0  0  0  0
    0.0052    7.5438   -0.9098 H   0  0  0  0  0  0
    0.5156    0.0291    2.4151 H   0  0  0  0  0  0
    2.1549    0.1776    0.2440 H   0  0  0  0  0  0
    3.4803    3.2674   -0.2495 H   0  0  0  0  0  0
   -1.2908    8.1967    0.6897 H   0  0  0  0  0  0
    2.3203   -1.3751    2.0920 H   0  0  0  0  0  0
    2.1951    0.6477    4.8916 H   0  0  0  0  0  0
    0.5087    1.0673    4.7138 H   0  0  0  0  0  0
    3.9974   -0.4205   -0.6668 H   0  0  0  0  0  0
    3.6189   -1.1002    3.7663 H   0  0  0  0  0  0
    1.2050   -1.0720    5.7260 H   0  0  0  0  0  0
  1  2  1  0  0  0
  1  3  1  0  0  0
  1  4  1  0  0  0
  1 24  1  0  0  0
  2  5  1  0  0  0
  3  6  1  0  0  0
  3  7  1  0  0  0
  3 25  1  0  0  0
  4  8  1  0  0  0
  4  9  1  0  0  0
  4 26  1  0  0  0
  5 10  1  0  0  0
  5 11  1  0  0  0
  5 27  1  0  0  0
  6 12  1  0  0  0
  6 13  1  0  0  0
  6 28  1  0  0  0
  7 29  1  0  0  0
  8 14  1  0  0  0
  8 12  1  0  0  0
  8 30  1  0  0  0
  9 31  1  0  0  0
 10 15  1  0  0  0
 11 16  1  0  0  0
 11 17  1  0  0  0
 11 32  1  0  0  0
 12 18  1  0  0  0
 12 33  1  0  0  0
 13 34  1  0  0  0
 14 35  1  0  0  0
 15 19  1  0  0  0
 15 20  1  0  0  0
 15 36  1  0  0  0
 16 21  1  0  0  0
 16 19  1  0  0  0
 16 37  1  0  0  0
 17 38  1  0  0  0
 18 39  1  0  0  0
 19 22  1  0  0  0
 19 40  1  0  0  0
 20 23  1  0  0  0
 20 41  1  0  0  0
 20 42  1  0  0  0
 21 43  1  0  0  0
 22 44  1  0  0  0
 23 45  1  0  0  0
M  END
> <i_ionizer_Ion_state_n>
0

> <i_ionizer_Tot_Q>
0

> <s_ionizer_Ion_centers>


> <s_ionizer_Ion_types>


> <s_ionizer_Ion_ctrs_in>


> <r_ionizer_Ionization_penalty>
0

> <r_ionizer_Ionization_penalty_charging>
0

> <r_ionizer_Ionization_penalty_neutral>
0

> <s_st_Chirality_1>
3_S_7_6_1_25

> <s_st_Chirality_2>
4_S_9_8_1_26

> <s_st_Chirality_3>
5_R_2_10_11_27

> <s_st_Chirality_4>
6_R_13_12_3_28

> <s_st_Chirality_5>
8_S_14_12_4_30

> <s_st_Chirality_6>
11_R_17_5_16_32

> <s_st_Chirality_7>
15_R_10_19_20_36

> <s_st_Chirality_8>
16_S_21_11_19_37

> <s_st_Chirality_9>
19_S_22_16_15_40

> <i_mmod_Serial_Number-OPLS-2005>
428

> <i_i_glide_lignum>
424

> <r_i_docking_score>
-7.42636

> <r_i_glide_gscore>
-7.42636

> <r_i_glide_lipo>
-1.03442

> <r_i_glide_hbond>
-1.71475

> <r_i_glide_metal>
0

> <r_i_glide_eburp>
-1.19468

> <r_i_glide_evdw>
-27.0437

> <r_i_glide_ecoul>
-11.4302

> <r_i_glide_erotb>
0.554817

> <r_i_glide_esite>
-0.730807

> <r_i_glide_emodel>
-59.8954

> <r_i_glide_energy>
-38.4739

> <r_i_glide_einternal>
13.0695

> <i_i_glide_confnum>
8

> <i_i_glide_posenum>
241

$$$$
C05655
                    3D
 Structure written by MMmdl.
 23 23  0  0  1  0            999 V2000
    1.8897    0.2708    2.9428 C   0  0  2  0  0  0
    3.2823    0.0289    3.4780 C   0  0  0  0  0  0
    1.8505    0.1583    1.3988 C   0  0  0  0  0  0
    1.3390    1.6293    3.4420 C   0  0  0  0  0  0
    4.3656    0.0942    2.6983 C   0  0  0  0  0  0
    3.2991   -0.2998    4.7770 O   0  0  0  0  0  0
    3.0317    0.4003    0.6903 N   0  0  0  0  0  0
    0.7779   -0.0978    0.8541 O   0  0  0  0  0  0
    0.2985    2.2878    2.5069 C   0  0  0  0  0  0
    4.1929    0.4088    1.2547 C   0  0  0  0  0  0
   -0.3217    3.5598    3.0986 C   0  0  0  0  0  0
    5.4141    0.7238    0.4154 C   0  0  0  0  0  0
   -1.4843    3.8740    2.7588 O   0  0  0  0  0  0
    6.4640    0.1028    0.6964 O   0  0  0  0  0  0
    1.2544   -0.5262    3.3332 H   0  0  0  0  0  0
    0.8788    1.4791    4.4199 H   0  0  0  0  0  0
    2.1688    2.3186    3.6087 H   0  0  0  0  0  0
    5.3630   -0.0887    3.0706 H   0  0  0  0  0  0
    4.1011   -0.7729    4.9389 H   0  0  0  0  0  0
    0.7505    2.5486    1.5502 H   0  0  0  0  0  0
   -0.5070    1.5833    2.2966 H   0  0  0  0  0  0
    0.3895    4.2002    3.9031 O   0  5  0  0  0  0
    5.2794    1.5778   -0.4912 O   0  5  0  0  0  0
  1  2  1  0  0  0
  1  3  1  0  0  0
  1  4  1  0  0  0
  1 15  1  0  0  0
  2  5  2  0  0  0
  2  6  1  0  0  0
  3  7  1  0  0  0
  3  8  2  0  0  0
  4  9  1  0  0  0
  4 16  1  0  0  0
  4 17  1  0  0  0
  5 10  1  0  0  0
  5 18  1  0  0  0
  6 19  1  0  0  0
  7 10  2  0  0  0
  9 11  1  0  0  0
  9 20  1  0  0  0
  9 21  1  0  0  0
 10 12  1  0  0  0
 11 13  2  0  0  0
 11 22  1  0  0  0
 12 14  2  0  0  0
 12 23  1  0  0  0
M  CHG  2  22  -1  23  -1
M  END
> <i_ionizer_Ion_state_n>
3

> <i_ionizer_Tot_Q>
-2

> <s_ionizer_Ion_centers>
22_23

> <s_ionizer_Ion_types>
OM_OM

> <s_ionizer_Ion_ctrs_in>
13_15

> <r_ionizer_Ionization_penalty>
0.00118438

> <r_ionizer_Ionization_penalty_charging>
0.00118438

> <r_ionizer_Ionization_penalty_neutral>
0

> <s_st_Chirality_1>
1_R_3_2_4_15

> <s_st_EZ_1>
6_2_5_10_E

> <s_st_EZ_2>
3_7_10_12_E

> <i_mmod_Serial_Number-OPLS-2005>
775

> <i_i_glide_lignum>
766

> <r_i_docking_score>
-7.42375

> <r_i_glide_gscore>
-7.42375

> <r_i_glide_lipo>
-0.471297

> <r_i_glide_hbond>
-2.24643

> <r_i_glide_metal>
0

> <r_i_glide_eburp>
-2.48213

> <r_i_glide_evdw>
-16.969

> <r_i_glide_ecoul>
-10.7827

> <r_i_glide_erotb>
0.764896

> <r_i_glide_esite>
-0.553007

> <r_i_glide_emodel>
-64.2166

> <r_i_glide_energy>
-27.7517

> <r_i_glide_einternal>
10.364

> <i_i_glide_confnum>
4

> <i_i_glide_posenum>
310

$$$$
C05577
                    3D
 Structure written by MMmdl.
 20 20  0  0  1  0            999 V2000
    3.1666    3.1744    3.1764 C   0  0  0  0  0  0
    2.7806    1.8216    3.2854 C   0  0  0  0  0  0
    4.3336    3.6187    3.8371 C   0  0  0  0  0  0
    2.3253    4.1330    2.3480 C   0  0  2  0  0  0
    3.5518    0.9218    4.0466 C   0  0  0  0  0  0
    5.1052    2.7196    4.5988 C   0  0  0  0  0  0
    0.8460    4.0364    2.7241 C   0  0  0  0  0  0
    2.4732    3.9298    0.9560 O   0  0  0  0  0  0
    4.7158    1.3699    4.7048 C   0  0  0  0  0  0
    3.1708   -0.3844    4.1454 O   0  0  0  0  0  0
    0.5007    3.8932    3.8961 O   0  0  0  0  0  0
    5.4660    0.4998    5.4438 O   0  0  0  0  0  0
    1.8905    1.4706    2.7839 H   0  0  0  0  0  0
    4.6394    4.6520    3.7606 H   0  0  0  0  0  0
    2.6549    5.1495    2.5648 H   0  0  0  0  0  0
    5.9953    3.0704    5.1000 H   0  0  0  0  0  0
    0.1380    4.1015    1.8974 H   0  0  0  0  0  0
    3.3732    4.1067    0.7264 H   0  0  0  0  0  0
    3.7686   -0.8770    4.6882 H   0  0  0  0  0  0
    5.1155   -0.3777    5.4522 H   0  0  0  0  0  0
  1  2  2  0  0  0
  1  3  1  0  0  0
  1  4  1  0  0  0
  2  5  1  0  0  0
  2 13  1  0  0  0
  3  6  2  0  0  0
  3 14  1  0  0  0
  4  7  1  0  0  0
  4  8  1  0  0  0
  4 15  1  0  0  0
  5  9  2  0  0  0
  5 10  1  0  0  0
  6  9  1  0  0  0
  6 16  1  0  0  0
  7 11  2  0  0  0
  7 17  1  0  0  0
  8 18  1  0  0  0
  9 12  1  0  0  0
 10 19  1  0  0  0
 12 20  1  0  0  0
M  END
> <i_ionizer_Ion_state_n>
0

> <i_ionizer_Tot_Q>
0

> <s_ionizer_Ion_centers>


> <s_ionizer_Ion_types>


> <s_ionizer_Ion_ctrs_in>


> <r_ionizer_Ionization_penalty>
0.00118438

> <r_ionizer_Ionization_penalty_charging>
0

> <r_ionizer_Ionization_penalty_neutral>
0.00118438

> <s_st_Chirality_1>
4_R_8_7_1_15

> <i_mmod_Serial_Number-OPLS-2005>
745

> <i_i_glide_lignum>
736

> <r_i_docking_score>
-7.42078

> <r_i_glide_gscore>
-7.42078

> <r_i_glide_lipo>
-0.660268

> <r_i_glide_hbond>
-1.4

> <r_i_glide_metal>
0

> <r_i_glide_eburp>
-2.5

> <r_i_glide_evdw>
-20.27

> <r_i_glide_ecoul>
-11.3547

> <r_i_glide_erotb>
0.620985

> <r_i_glide_esite>
-0.724428

> <r_i_glide_emodel>
-43.2809

> <r_i_glide_energy>
-31.6247

> <r_i_glide_einternal>
1.41738

> <i_i_glide_confnum>
2

> <i_i_glide_posenum>
650

$$$$
C05298
                    3D
 Structure written by MMmdl.
 43 46  0  0  1  0            999 V2000
    1.1778    4.0148    2.8075 C   0  0  1  0  0  0
    2.4045    3.4312    2.0599 C   0  0  2  0  0  0
    0.5600    5.2053    2.0649 C   0  0  0  0  0  0
    0.1687    2.8993    3.1993 C   0  0  0  0  0  0
    3.0162    2.3365    2.9449 C   0  0  1  0  0  0
    3.3833    4.5565    1.7202 C   0  0  0  0  0  0
    1.3138    5.9305    1.1041 C   0  0  0  0  0  0
   -0.7548    5.6334    2.3628 C   0  0  0  0  0  0
    0.8303    1.7266    3.9630 C   0  0  0  0  0  0
    2.0324    1.1826    3.1746 C   0  0  2  0  0  0
    4.3360    1.6611    2.5539 C   0  0  0  0  0  0
    2.7402    5.5436    0.7412 C   0  0  0  0  0  0
    0.7385    7.0363    0.4458 C   0  0  0  0  0  0
   -1.3246    6.7411    1.7057 C   0  0  0  0  0  0
    2.9545    0.2265    3.9192 C   0  0  0  0  0  0
    1.5664    0.4723    1.8826 C   0  0  0  0  0  0
    4.4043    0.4358    3.4864 C   0  0  0  0  0  0
   -0.5766    7.4430    0.7369 C   0  0  0  0  0  0
   -2.5974    7.1188    2.0297 O   0  0  0  0  0  0
    2.5873   -0.6050    4.7473 O   0  0  0  0  0  0
   -1.1017    8.5148    0.0713 O   0  0  0  0  0  0
    1.5479    4.4367    3.7428 H   0  0  0  0  0  0
    2.0785    2.9912    1.1179 H   0  0  0  0  0  0
    3.2058    2.8070    3.9123 H   0  0  0  0  0  0
   -0.6198    3.3038    3.8318 H   0  0  0  0  0  0
   -0.3210    2.5233    2.3010 H   0  0  0  0  0  0
    3.6614    5.0773    2.6370 H   0  0  0  0  0  0
    4.3037    4.1608    1.2908 H   0  0  0  0  0  0
   -1.3460    5.1249    3.1082 H   0  0  0  0  0  0
    1.1565    2.0697    4.9455 H   0  0  0  0  0  0
    0.1002    0.9356    4.1365 H   0  0  0  0  0  0
    4.3162    1.3470    1.5100 H   0  0  0  0  0  0
    5.1894    2.3255    2.6906 H   0  0  0  0  0  0
    3.3525    6.4427    0.6668 H   0  0  0  0  0  0
    2.7163    5.0985   -0.2538 H   0  0  0  0  0  0
    1.3117    7.5784   -0.2924 H   0  0  0  0  0  0
    1.0361    1.1455    1.2107 H   0  0  0  0  0  0
    0.8863   -0.3468    2.1184 H   0  0  0  0  0  0
    2.4033    0.0498    1.3258 H   0  0  0  0  0  0
    4.8027   -0.4439    2.9810 H   0  0  0  0  0  0
    5.0141    0.6432    4.3659 H   0  0  0  0  0  0
   -2.8598    7.9510    1.6721 H   0  0  0  0  0  0
   -0.6454    9.3269    0.2186 H   0  0  0  0  0  0
  1  2  1  0  0  0
  1  3  1  0  0  0
  1  4  1  0  0  0
  1 22  1  0  0  0
  2  5  1  0  0  0
  2  6  1  0  0  0
  2 23  1  0  0  0
  3  7  2  0  0  0
  3  8  1  0  0  0
  4  9  1  0  0  0
  4 25  1  0  0  0
  4 26  1  0  0  0
  5 10  1  0  0  0
  5 11  1  0  0  0
  5 24  1  0  0  0
  6 12  1  0  0  0
  6 27  1  0  0  0
  6 28  1  0  0  0
  7 13  1  0  0  0
  7 12  1  0  0  0
  8 14  2  0  0  0
  8 29  1  0  0  0
  9 10  1  0  0  0
  9 30  1  0  0  0
  9 31  1  0  0  0
 10 15  1  0  0  0
 10 16  1  0  0  0
 11 17  1  0  0  0
 11 32  1  0  0  0
 11 33  1  0  0  0
 12 34  1  0  0  0
 12 35  1  0  0  0
 13 18  2  0  0  0
 13 36  1  0  0  0
 14 19  1  0  0  0
 14 18  1  0  0  0
 15 20  2  0  0  0
 15 17  1  0  0  0
 16 37  1  0  0  0
 16 38  1  0  0  0
 16 39  1  0  0  0
 17 40  1  0  0  0
 17 41  1  0  0  0
 18 21  1  0  0  0
 19 42  1  0  0  0
 21 43  1  0  0  0
M  END
> <i_ionizer_Ion_state_n>
0

> <i_ionizer_Tot_Q>
0

> <s_ionizer_Ion_centers>


> <s_ionizer_Ion_types>


> <s_ionizer_Ion_ctrs_in>


> <r_ionizer_Ionization_penalty>
0.00118438

> <r_ionizer_Ionization_penalty_charging>
0

> <r_ionizer_Ionization_penalty_neutral>
0.00118438

> <s_st_Chirality_1>
1_S_3_2_4_22

> <s_st_Chirality_2>
2_R_5_1_6_23

> <s_st_Chirality_3>
5_S_10_2_11_24

> <s_st_Chirality_4>
10_S_15_5_9_16

> <i_mmod_Serial_Number-OPLS-2005>
669

> <i_i_glide_lignum>
662

> <r_i_docking_score>
-7.41967

> <r_i_glide_gscore>
-7.41967

> <r_i_glide_lipo>
-1.584

> <r_i_glide_hbond>
-0.373144

> <r_i_glide_metal>
0

> <r_i_glide_eburp>
-1.61838

> <r_i_glide_evdw>
-36.1257

> <r_i_glide_ecoul>
-1.55092

> <r_i_glide_erotb>
0

> <r_i_glide_esite>
-0.799001

> <r_i_glide_emodel>
-56.7133

> <r_i_glide_energy>
-37.6766

> <r_i_glide_einternal>
2.73976

> <i_i_glide_confnum>
1

> <i_i_glide_posenum>
125

$$$$
C01161
                    3D
 Structure written by MMmdl.
 19 19  0  0  1  0            999 V2000
    2.3449    2.7518    3.0702 C   0  0  0  0  0  0
    2.0851    1.3973    3.3695 C   0  0  0  0  0  0
    3.5532    3.3411    3.4997 C   0  0  0  0  0  0
    1.3335    3.5688    2.2829 C   0  0  0  0  0  0
    3.0250    0.6391    4.0949 C   0  0  0  0  0  0
    4.4929    2.5839    4.2259 C   0  0  0  0  0  0
    0.0446    3.6625    3.1011 C   0  0  0  0  0  0
    4.2306    1.2321    4.5244 C   0  0  0  0  0  0
    2.7689   -0.6701    4.3823 O   0  0  0  0  0  0
    0.0998    3.3002    4.2970 O   0  0  0  0  0  0
    5.1441    0.4999    5.2286 O   0  0  0  0  0  0
    1.1612    0.9406    3.0452 H   0  0  0  0  0  0
    3.7579    4.3781    3.2766 H   0  0  0  0  0  0
    1.7244    4.5674    2.0834 H   0  0  0  0  0  0
    1.1334    3.1010    1.3181 H   0  0  0  0  0  0
    5.4130    3.0460    4.5519 H   0  0  0  0  0  0
    3.4872   -1.0638    4.8547 H   0  0  0  0  0  0
    4.8915   -0.4048    5.3316 H   0  0  0  0  0  0
   -0.9713    4.1011    2.5182 O   0  5  0  0  0  0
  1  2  1  0  0  0
  1  3  2  0  0  0
  1  4  1  0  0  0
  2  5  2  0  0  0
  2 12  1  0  0  0
  3  6  1  0  0  0
  3 13  1  0  0  0
  4  7  1  0  0  0
  4 14  1  0  0  0
  4 15  1  0  0  0
  5  8  1  0  0  0
  5  9  1  0  0  0
  6  8  2  0  0  0
  6 16  1  0  0  0
  7 10  2  0  0  0
  7 19  1  0  0  0
  8 11  1  0  0  0
  9 17  1  0  0  0
 11 18  1  0  0  0
M  CHG  1  19  -1
M  END
> <i_ionizer_Ion_state_n>
2

> <i_ionizer_Tot_Q>
-1

> <s_ionizer_Ion_centers>
19

> <s_ionizer_Ion_types>
OM

> <s_ionizer_Ion_ctrs_in>
10

> <r_ionizer_Ionization_penalty>
0.00177657

> <r_ionizer_Ionization_penalty_charging>
0.00059219

> <r_ionizer_Ionization_penalty_neutral>
0.00118438

> <i_mmod_Serial_Number-OPLS-2005>
407

> <i_i_glide_lignum>
403

> <r_i_docking_score>
-7.41761

> <r_i_glide_gscore>
-7.41761

> <r_i_glide_lipo>
-0.609438

> <r_i_glide_hbond>
-1.88279

> <r_i_glide_metal>
0

> <r_i_glide_eburp>
-2.5

> <r_i_glide_evdw>
-15.419

> <r_i_glide_ecoul>
-13.7658

> <r_i_glide_erotb>
0.627087

> <r_i_glide_esite>
-0.442378

> <r_i_glide_emodel>
-59.9624

> <r_i_glide_energy>
-29.1847

> <r_i_glide_einternal>
1.50118

> <i_i_glide_confnum>
1

> <i_i_glide_posenum>
256

$$$$
C07717
                    3D
 Structure written by MMmdl.
 25 27  0  0  1  0            999 V2000
    1.5185    3.6216    2.5339 C   0  0  0  0  0  0
    2.0458    2.3515    3.0297 C   0  0  0  0  0  0
    2.5065    4.2171    1.7389 C   0  0  0  0  0  0
    0.2768    4.2614    2.7288 C   0  0  0  0  0  0
    3.3445    2.1917    2.5307 C   0  0  0  0  0  0
    1.4727    1.3692    3.8598 C   0  0  0  0  0  0
    3.7595    3.3641    1.6624 C   0  0  0  0  0  0
    2.2983    5.4588    1.1143 C   0  0  0  0  0  0
    0.0534    5.5119    2.1060 C   0  0  0  0  0  0
   -0.7010    3.7008    3.4990 O   0  0  0  0  0  0
    4.1150    1.0565    2.8375 C   0  0  0  0  0  0
    2.2351    0.2232    4.1766 C   0  0  0  0  0  0
    1.0581    6.1049    1.3048 C   0  0  0  0  0  0
   -1.1402    6.1540    2.2776 O   0  0  0  0  0  0
    3.5466    0.0676    3.6694 C   0  0  0  0  0  0
    0.4724    1.4832    4.2494 H   0  0  0  0  0  0
    3.9674    3.0498    0.6394 H   0  0  0  0  0  0
    4.6229    3.8837    2.0786 H   0  0  0  0  0  0
    3.0678    5.9078    0.5037 H   0  0  0  0  0  0
   -0.5951    2.7629    3.5587 H   0  0  0  0  0  0
    5.1157    0.9434    2.4473 H   0  0  0  0  0  0
    1.8126   -0.5412    4.8119 H   0  0  0  0  0  0
    0.8801    7.0599    0.8326 H   0  0  0  0  0  0
   -1.1693    7.0012    1.8600 H   0  0  0  0  0  0
    4.1173   -0.8143    3.9204 H   0  0  0  0  0  0
  1  2  1  0  0  0
  1  3  1  0  0  0
  1  4  2  0  0  0
  2  5  2  0  0  0
  2  6  1  0  0  0
  3  7  1  0  0  0
  3  8  2  0  0  0
  4  9  1  0  0  0
  4 10  1  0  0  0
  5 11  1  0  0  0
  5  7  1  0  0  0
  6 12  2  0  0  0
  6 16  1  0  0  0
  7 17  1  0  0  0
  7 18  1  0  0  0
  8 13  1  0  0  0
  8 19  1  0  0  0
  9 14  1  0  0  0
  9 13  2  0  0  0
 10 20  1  0  0  0
 11 15  2  0  0  0
 11 21  1  0  0  0
 12 15  1  0  0  0
 12 22  1  0  0  0
 13 23  1  0  0  0
 14 24  1  0  0  0
 15 25  1  0  0  0
M  END
> <i_ionizer_Ion_state_n>
0

> <i_ionizer_Tot_Q>
0

> <s_ionizer_Ion_centers>


> <s_ionizer_Ion_types>


> <s_ionizer_Ion_ctrs_in>


> <r_ionizer_Ionization_penalty>
0.00118438

> <r_ionizer_Ionization_penalty_charging>
0

> <r_ionizer_Ionization_penalty_neutral>
0.00118438

> <i_mmod_Serial_Number-OPLS-2005>
903

> <i_i_glide_lignum>
891

> <r_i_docking_score>
-7.39539

> <r_i_glide_gscore>
-7.39539

> <r_i_glide_lipo>
-1.17917

> <r_i_glide_hbond>
-0.727503

> <r_i_glide_metal>
0

> <r_i_glide_eburp>
-2.28619

> <r_i_glide_evdw>
-24.2315

> <r_i_glide_ecoul>
-4.26269

> <r_i_glide_erotb>
0

> <r_i_glide_esite>
-0.837745

> <r_i_glide_emodel>
-43.8274

> <r_i_glide_energy>
-28.4942

> <r_i_glide_einternal>
0.542602

> <i_i_glide_confnum>
1

> <i_i_glide_posenum>
94

$$$$
C05638
                    3D
 Structure written by MMmdl.
 26 26  0  0  1  0            999 V2000
    3.6656    0.1129    1.5024 C   0  0  0  0  0  0
    4.8840    0.2940    0.6426 C   0  0  0  0  0  0
    2.3482    0.0125    0.9628 C   0  0  0  0  0  0
    3.8258   -0.0054    2.9060 C   0  0  0  0  0  0
    5.9124   -0.8503    0.6243 C   0  0  0  0  0  0
    5.1039    1.3036   -0.0286 O   0  0  0  0  0  0
    1.2453   -0.1822    1.8205 C   0  0  0  0  0  0
    2.0905    0.1121   -0.3531 N   0  0  0  0  0  0
    2.7188   -0.1996    3.7528 C   0  0  0  0  0  0
    6.7916   -0.8641   -0.6401 C   0  0  0  0  0  0
    1.4258   -0.2866    3.2104 C   0  0  0  0  0  0
    2.9054   -0.3064    5.1000 O   0  0  0  0  0  0
    4.8026    0.0416    3.3632 H   0  0  0  0  0  0
    6.5491   -0.7610    1.5058 H   0  0  0  0  0  0
    5.3790   -1.7982    0.7043 H   0  0  0  0  0  0
    0.2461   -0.2516    1.4147 H   0  0  0  0  0  0
    1.1776   -0.1264   -0.7134 H   0  0  0  0  0  0
    2.8537    0.0725   -1.0156 H   0  0  0  0  0  0
    7.0599    0.1517   -0.9338 H   0  0  0  0  0  0
    7.7218   -1.4032   -0.4543 H   0  0  0  0  0  0
    0.5706   -0.4357    3.8533 H   0  0  0  0  0  0
    3.6576   -0.8293    5.3321 H   0  0  0  0  0  0
    6.6993   -1.4994   -2.5820 H   0  0  0  0  0  0
    5.8702   -2.4609   -1.5314 H   0  0  0  0  0  0
    6.0979   -1.5062   -1.7702 N   0  3  0  0  0  0
    5.2490   -1.0003   -1.9796 H   0  0  0  0  0  0
  1  2  1  0  0  0
  1  3  1  0  0  0
  1  4  2  0  0  0
  2  5  1  0  0  0
  2  6  2  0  0  0
  3  7  2  0  0  0
  3  8  1  0  0  0
  4  9  1  0  0  0
  4 13  1  0  0  0
  5 10  1  0  0  0
  5 14  1  0  0  0
  5 15  1  0  0  0
  7 11  1  0  0  0
  7 16  1  0  0  0
  8 17  1  0  0  0
  8 18  1  0  0  0
  9 12  1  0  0  0
  9 11  2  0  0  0
 10 19  1  0  0  0
 10 20  1  0  0  0
 10 25  1  0  0  0
 11 21  1  0  0  0
 12 22  1  0  0  0
 23 25  1  0  0  0
 24 25  1  0  0  0
 25 26  1  0  0  0
M  CHG  1  25   1
M  END
> <i_ionizer_Ion_state_n>
4

> <i_ionizer_Tot_Q>
1

> <s_ionizer_Ion_centers>
25

> <s_ionizer_Ion_types>
N5

> <s_ionizer_Ion_ctrs_in>
13

> <r_ionizer_Ionization_penalty>
0.00265017

> <r_ionizer_Ionization_penalty_charging>
0.000187331

> <r_ionizer_Ionization_penalty_neutral>
0.00246284

> <i_mmod_Serial_Number-OPLS-2005>
765

> <i_i_glide_lignum>
756

> <r_i_docking_score>
-7.37872

> <r_i_glide_gscore>
-7.37872

> <r_i_glide_lipo>
-0.893177

> <r_i_glide_hbond>
-1.58292

> <r_i_glide_metal>
0

> <r_i_glide_eburp>
-2.41503

> <r_i_glide_evdw>
-20.2559

> <r_i_glide_ecoul>
-11.9114

> <r_i_glide_erotb>
1.09888

> <r_i_glide_esite>
-0.774865

> <r_i_glide_emodel>
-55.9766

> <r_i_glide_energy>
-32.1673

> <r_i_glide_einternal>
5.57475

> <i_i_glide_confnum>
3

> <i_i_glide_posenum>
204

$$$$
C05578
                    3D
 Structure written by MMmdl.
 18 19  0  0  1  0            999 V2000
    2.8167    2.7825    2.8775 C   0  0  0  0  0  0
    4.0135    3.3091    3.4442 C   0  0  0  0  0  0
    2.4751    1.4508    3.2097 C   0  0  0  0  0  0
    2.2241    3.8058    2.0602 C   0  0  0  0  0  0
    4.8305    2.5484    4.2992 C   0  0  0  0  0  0
    4.1122    4.6020    2.9686 N   0  0  0  0  0  0
    3.2847    0.6758    4.0660 C   0  0  0  0  0  0
    3.0437    4.9016    2.1409 C   0  0  0  0  0  0
    4.4669    1.2257    4.6129 C   0  0  0  0  0  0
    2.9015   -0.6046    4.3504 O   0  0  0  0  0  0
    5.2715    0.4995    5.4444 O   0  0  0  0  0  0
    1.5742    1.0208    2.7974 H   0  0  0  0  0  0
    1.3081    3.7174    1.4949 H   0  0  0  0  0  0
    5.7316    2.9773    4.7120 H   0  0  0  0  0  0
    4.8499    5.2590    3.1790 H   0  0  0  0  0  0
    2.9532    5.8724    1.6756 H   0  0  0  0  0  0
    3.5140   -1.0891    4.8790 H   0  0  0  0  0  0
    5.0289   -0.4080    5.5269 H   0  0  0  0  0  0
  1  2  1  0  0  0
  1  3  2  0  0  0
  1  4  1  0  0  0
  2  5  2  0  0  0
  2  6  1  0  0  0
  3  7  1  0  0  0
  3 12  1  0  0  0
  4  8  2  0  0  0
  4 13  1  0  0  0
  5  9  1  0  0  0
  5 14  1  0  0  0
  6  8  1  0  0  0
  6 15  1  0  0  0
  7 10  1  0  0  0
  7  9  2  0  0  0
  8 16  1  0  0  0
  9 11  1  0  0  0
 10 17  1  0  0  0
 11 18  1  0  0  0
M  END
> <i_ionizer_Ion_state_n>
0

> <i_ionizer_Tot_Q>
0

> <s_ionizer_Ion_centers>


> <s_ionizer_Ion_types>


> <s_ionizer_Ion_ctrs_in>


> <r_ionizer_Ionization_penalty>
0.00118438

> <r_ionizer_Ionization_penalty_charging>
0

> <r_ionizer_Ionization_penalty_neutral>
0.00118438

> <i_mmod_Serial_Number-OPLS-2005>
746

> <i_i_glide_lignum>
737

> <r_i_docking_score>
-7.34489

> <r_i_glide_gscore>
-7.34489

> <r_i_glide_lipo>
-0.730055

> <r_i_glide_hbond>
-0.9

> <r_i_glide_metal>
0

> <r_i_glide_eburp>
-2.5

> <r_i_glide_evdw>
-19.3899

> <r_i_glide_ecoul>
-9.38043

> <r_i_glide_erotb>
0

> <r_i_glide_esite>
-0.725603

> <r_i_glide_emodel>
-37.6906

> <r_i_glide_energy>
-28.7703

> <r_i_glide_einternal>
0.070211

> <i_i_glide_confnum>
1

> <i_i_glide_posenum>
874

$$$$
C00468
                    3D
 Structure written by MMmdl.
 42 45  0  0  1  0            999 V2000
    3.0844    2.3760    3.1280 C   0  0  1  0  0  0
    2.5212    3.4684    2.2018 C   0  0  1  0  0  0
    2.0969    1.2099    3.3079 C   0  0  2  0  0  0
    4.4374    1.7121    2.8347 C   0  0  0  0  0  0
    1.2352    4.0450    2.8580 C   0  0  1  0  0  0
    3.5118    4.6048    1.9248 C   0  0  0  0  0  0
    0.8414    1.7527    4.0166 C   0  0  0  0  0  0
    2.9820    0.2724    4.1232 C   0  0  0  0  0  0
    1.7151    0.4615    2.0027 C   0  0  0  0  0  0
    4.4540    0.4884    3.7748 C   0  0  0  0  0  0
    0.6545    5.2176    2.0543 C   0  0  0  0  0  0
    0.2159    2.9221    3.2141 C   0  0  0  0  0  0
    2.9303    5.5913    0.9058 C   0  0  0  0  0  0
    2.5719   -0.5505    4.9398 O   0  0  0  0  0  0
    1.4710    5.9513    1.1504 C   0  0  0  0  0  0
   -0.6902    5.6218    2.2355 C   0  0  0  0  0  0
    0.9306    7.0408    0.4355 C   0  0  0  0  0  0
   -1.2210    6.7111    1.5196 C   0  0  0  0  0  0
   -0.4111    7.4208    0.6160 C   0  0  0  0  0  0
   -0.9211    8.4771   -0.0811 O   0  0  0  0  0  0
    3.2169    2.8611    4.0996 H   0  0  0  0  0  0
    2.2704    3.0275    1.2374 H   0  0  0  0  0  0
    1.5325    4.4941    3.8071 H   0  0  0  0  0  0
    4.5033    1.4009    1.7915 H   0  0  0  0  0  0
    5.2724    2.3849    3.0324 H   0  0  0  0  0  0
    3.7310    5.1272    2.8571 H   0  0  0  0  0  0
    4.4623    4.2208    1.5540 H   0  0  0  0  0  0
    0.1049    0.9594    4.1505 H   0  0  0  0  0  0
    1.0980    2.0998    5.0188 H   0  0  0  0  0  0
    1.1975    1.0952    1.2850 H   0  0  0  0  0  0
    1.0462   -0.3725    2.2191 H   0  0  0  0  0  0
    2.5831    0.0465    1.4891 H   0  0  0  0  0  0
    5.0107    0.6992    4.6883 H   0  0  0  0  0  0
    4.8849   -0.3920    3.2976 H   0  0  0  0  0  0
   -0.5994    3.3211    3.8156 H   0  0  0  0  0  0
   -0.2418    2.5431    2.3003 H   0  0  0  0  0  0
    3.5332    6.5000    0.8879 H   0  0  0  0  0  0
    2.9957    5.1566   -0.0923 H   0  0  0  0  0  0
   -1.3395    5.1126    2.9293 H   0  0  0  0  0  0
    1.5509    7.5908   -0.2574 H   0  0  0  0  0  0
   -2.2507    6.9998    1.6714 H   0  0  0  0  0  0
   -0.4648    9.2875    0.0853 H   0  0  0  0  0  0
  1  2  1  0  0  0
  1  3  1  0  0  0
  1  4  1  0  0  0
  1 21  1  0  0  0
  2  5  1  0  0  0
  2  6  1  0  0  0
  2 22  1  0  0  0
  3  7  1  0  0  0
  3  8  1  0  0  0
  3  9  1  0  0  0
  4 10  1  0  0  0
  4 24  1  0  0  0
  4 25  1  0  0  0
  5 11  1  0  0  0
  5 12  1  0  0  0
  5 23  1  0  0  0
  6 13  1  0  0  0
  6 26  1  0  0  0
  6 27  1  0  0  0
  7 12  1  0  0  0
  7 28  1  0  0  0
  7 29  1  0  0  0
  8 14  2  0  0  0
  8 10  1  0  0  0
  9 30  1  0  0  0
  9 31  1  0  0  0
  9 32  1  0  0  0
 10 33  1  0  0  0
 10 34  1  0  0  0
 11 15  2  0  0  0
 11 16  1  0  0  0
 12 35  1  0  0  0
 12 36  1  0  0  0
 13 15  1  0  0  0
 13 37  1  0  0  0
 13 38  1  0  0  0
 15 17  1  0  0  0
 16 18  2  0  0  0
 16 39  1  0  0  0
 17 19  2  0  0  0
 17 40  1  0  0  0
 18 19  1  0  0  0
 18 41  1  0  0  0
 19 20  1  0  0  0
 20 42  1  0  0  0
M  END
> <i_ionizer_Ion_state_n>
0

> <i_ionizer_Tot_Q>
0

> <s_ionizer_Ion_centers>


> <s_ionizer_Ion_types>


> <s_ionizer_Ion_ctrs_in>


> <r_ionizer_Ionization_penalty>
0.00059219

> <r_ionizer_Ionization_penalty_charging>
0

> <r_ionizer_Ionization_penalty_neutral>
0.00059219

> <s_st_Chirality_1>
1_S_3_2_4_21

> <s_st_Chirality_2>
2_R_1_5_6_22

> <s_st_Chirality_3>
3_S_8_1_7_9

> <s_st_Chirality_4>
5_S_11_2_12_23

> <i_mmod_Serial_Number-OPLS-2005>
249

> <i_i_glide_lignum>
247

> <r_i_docking_score>
-7.34232

> <r_i_glide_gscore>
-7.34232

> <r_i_glide_lipo>
-1.59759

> <r_i_glide_hbond>
-0.45

> <r_i_glide_metal>
0

> <r_i_glide_eburp>
-1.73958

> <r_i_glide_evdw>
-34.0806

> <r_i_glide_ecoul>
-0.160825

> <r_i_glide_erotb>
0

> <r_i_glide_esite>
-0.81261

> <r_i_glide_emodel>
-46.7848

> <r_i_glide_energy>
-34.2414

> <r_i_glide_einternal>
2.50563

> <i_i_glide_confnum>
1

> <i_i_glide_posenum>
204

$$$$
C03569
                    3D
 Structure written by MMmdl.
 25 26  0  0  1  0            999 V2000
    2.1762    2.2643    3.0707 C   0  0  0  0  0  0
    1.8816    3.5742    2.4567 C   0  0  0  0  0  0
    3.4105    2.0033    3.7165 C   0  0  0  0  0  0
    1.2073    1.2370    3.0264 C   0  0  0  0  0  0
    0.6608    4.2534    2.6966 C   0  0  0  0  0  0
    2.8369    4.1813    1.6107 C   0  0  0  0  0  0
    3.6617    0.7432    4.3012 C   0  0  0  0  0  0
    4.3832    2.9612    3.7781 O   0  0  0  0  0  0
    1.4562   -0.0202    3.6084 C   0  0  0  0  0  0
    0.4115    5.5070    2.1016 C   0  0  0  0  0  0
   -0.2985    3.7037    3.4997 O   0  0  0  0  0  0
    2.5880    5.4327    1.0160 C   0  0  0  0  0  0
    2.6842   -0.2681    4.2472 C   0  0  0  0  0  0
    4.8552    0.4999    4.9205 O   0  0  0  0  0  0
    1.3735    6.0974    1.2621 C   0  0  0  0  0  0
    0.2598    1.4156    2.5392 H   0  0  0  0  0  0
    3.7737    3.6801    1.4149 H   0  0  0  0  0  0
    5.1502    2.6416    4.2299 H   0  0  0  0  0  0
    0.7039   -0.7939    3.5645 H   0  0  0  0  0  0
   -0.5208    6.0205    2.2857 H   0  0  0  0  0  0
   -0.1674    2.7818    3.6586 H   0  0  0  0  0  0
    3.3294    5.8816    0.3715 H   0  0  0  0  0  0
    2.8713   -1.2342    4.6926 H   0  0  0  0  0  0
    4.9338   -0.3862    5.2394 H   0  0  0  0  0  0
    1.1796    7.0576    0.8070 H   0  0  0  0  0  0
  1  2  1  0  0  0
  1  3  2  0  0  0
  1  4  1  0  0  0
  2  5  2  0  0  0
  2  6  1  0  0  0
  3  7  1  0  0  0
  3  8  1  0  0  0
  4  9  2  0  0  0
  4 16  1  0  0  0
  5 10  1  0  0  0
  5 11  1  0  0  0
  6 12  2  0  0  0
  6 17  1  0  0  0
  7 13  2  0  0  0
  7 14  1  0  0  0
  8 18  1  0  0  0
  9 13  1  0  0  0
  9 19  1  0  0  0
 10 15  2  0  0  0
 10 20  1  0  0  0
 11 21  1  0  0  0
 12 15  1  0  0  0
 12 22  1  0  0  0
 13 23  1  0  0  0
 14 24  1  0  0  0
 15 25  1  0  0  0
M  END
> <i_ionizer_Ion_state_n>
0

> <i_ionizer_Tot_Q>
0

> <s_ionizer_Ion_centers>


> <s_ionizer_Ion_types>


> <s_ionizer_Ion_ctrs_in>


> <r_ionizer_Ionization_penalty>
0.00177657

> <r_ionizer_Ionization_penalty_charging>
0

> <r_ionizer_Ionization_penalty_neutral>
0.00177657

> <i_mmod_Serial_Number-OPLS-2005>
556

> <i_i_glide_lignum>
550

> <r_i_docking_score>
-7.33421

> <r_i_glide_gscore>
-7.33421

> <r_i_glide_lipo>
-1.14558

> <r_i_glide_hbond>
-0.95

> <r_i_glide_metal>
0

> <r_i_glide_eburp>
-2.25597

> <r_i_glide_evdw>
-26.3859

> <r_i_glide_ecoul>
-7.06989

> <r_i_glide_erotb>
0.458185

> <r_i_glide_esite>
-0.622974

> <r_i_glide_emodel>
-48.7885

> <r_i_glide_energy>
-33.4558

> <r_i_glide_einternal>
0.34262

> <i_i_glide_confnum>
2

> <i_i_glide_posenum>
58

$$$$
C05640
                    3D
 Structure written by MMmdl.
 28 30  0  0  1  0            999 V2000
    1.5594    3.8284    1.9334 C   0  0  0  0  0  0
    2.7583    4.2066    1.1455 C   0  0  0  0  0  0
    0.3921    4.7589    1.9656 C   0  0  0  0  0  0
    1.5430    2.7205    2.5670 N   0  0  0  0  0  0
    3.8485    3.3789    1.0889 O   0  0  0  0  0  0
    2.7958    5.3720    0.4715 C   0  0  0  0  0  0
    0.4572    5.9327    1.2734 C   0  0  0  0  0  0
   -0.8900    4.3890    2.7854 C   0  0  0  0  0  0
    2.6435    1.8389    2.5384 C   0  0  0  0  0  0
    3.7926    2.1892    1.7743 C   0  0  0  0  0  0
    1.6619    6.3151    0.4833 C   0  0  0  0  0  0
   -0.5758    6.8561    1.2469 N   0  0  0  0  0  0
   -0.7035    3.6999    3.8125 O   0  0  0  0  0  0
    2.6302    0.5898    3.2380 C   0  0  0  0  0  0
    4.8997    1.3272    1.6937 C   0  0  0  0  0  0
    1.7249    7.3745   -0.1417 O   0  0  0  0  0  0
    3.7574   -0.2620    3.1299 C   0  0  0  0  0  0
    1.4723    0.1171    4.0943 C   0  0  0  0  0  0
    4.8816    0.0989    2.3691 C   0  0  0  0  0  0
    0.7474    0.9388    4.6967 O   0  0  0  0  0  0
    3.6717    5.6415   -0.1000 H   0  0  0  0  0  0
   -0.4878    7.7275    0.7438 H   0  0  0  0  0  0
   -1.4286    6.7173    1.7709 H   0  0  0  0  0  0
    5.7624    1.6088    1.1084 H   0  0  0  0  0  0
    3.7763   -1.2117    3.6448 H   0  0  0  0  0  0
    5.7298   -0.5667    2.3070 H   0  0  0  0  0  0
   -1.9789    4.7652    2.2983 O   0  5  0  0  0  0
    1.2807   -1.1157    4.2022 O   0  5  0  0  0  0
  1  2  1  0  0  0
  1  3  1  0  0  0
  1  4  2  0  0  0
  2  5  1  0  0  0
  2  6  2  0  0  0
  3  7  2  0  0  0
  3  8  1  0  0  0
  4  9  1  0  0  0
  5 10  1  0  0  0
  6 11  1  0  0  0
  6 21  1  0  0  0
  7 12  1  0  0  0
  7 11  1  0  0  0
  8 13  2  0  0  0
  8 27  1  0  0  0
  9 14  2  0  0  0
  9 10  1  0  0  0
 10 15  2  0  0  0
 11 16  2  0  0  0
 12 22  1  0  0  0
 12 23  1  0  0  0
 14 17  1  0  0  0
 14 18  1  0  0  0
 15 19  1  0  0  0
 15 24  1  0  0  0
 17 19  2  0  0  0
 17 25  1  0  0  0
 18 20  2  0  0  0
 18 28  1  0  0  0
 19 26  1  0  0  0
M  CHG  2  27  -1  28  -1
M  END
> <i_ionizer_Ion_state_n>
3

> <i_ionizer_Tot_Q>
-2

> <s_ionizer_Ion_centers>
27_28

> <s_ionizer_Ion_types>
OM_OM

> <s_ionizer_Ion_ctrs_in>
13_21

> <r_ionizer_Ionization_penalty>
0.00118438

> <r_ionizer_Ionization_penalty_charging>
0.00118438

> <r_ionizer_Ionization_penalty_neutral>
0

> <i_mmod_Serial_Number-OPLS-2005>
767

> <i_i_glide_lignum>
758

> <r_i_docking_score>
-7.33202

> <r_i_glide_gscore>
-7.33202

> <r_i_glide_lipo>
-1.12163

> <r_i_glide_hbond>
-1.54633

> <r_i_glide_metal>
0

> <r_i_glide_eburp>
-1.92868

> <r_i_glide_evdw>
-15.2237

> <r_i_glide_ecoul>
-9.34712

> <r_i_glide_erotb>
0

> <r_i_glide_esite>
-0.58278

> <r_i_glide_emodel>
-67.4446

> <r_i_glide_energy>
-24.5708

> <r_i_glide_einternal>
4.33894

> <i_i_glide_confnum>
1

> <i_i_glide_posenum>
157

$$$$
C00078
                    3D
 Structure written by MMmdl.
 27 28  0  0  1  0            999 V2000
    5.9653   -0.3089    1.2816 C   0  0  0  0  0  0
    4.8145    0.1282    2.0703 C   0  0  0  0  0  0
    5.5935   -0.3224   -0.0979 C   0  0  0  0  0  0
    7.2908   -0.6982    1.5901 C   0  0  0  0  0  0
    4.7313    0.2947    3.5646 C   0  0  0  0  0  0
    3.8246    0.3566    1.1744 C   0  0  0  0  0  0
    4.2789    0.0924   -0.1006 N   0  0  0  0  0  0
    6.4870   -0.7014   -1.1156 C   0  0  0  0  0  0
    8.1963   -1.0800    0.5785 C   0  0  0  0  0  0
    3.3338    0.4206    4.2162 C   0  0  1  0  0  0
    7.7969   -1.0823   -0.7723 C   0  0  0  0  0  0
    2.2067   -0.0998    3.3130 C   0  0  0  0  0  0
    2.3969   -1.1840    2.7176 O   0  0  0  0  0  0
    7.6145   -0.7035    2.6203 H   0  0  0  0  0  0
    5.2654   -0.5437    4.0145 H   0  0  0  0  0  0
    5.3212    1.1792    3.8072 H   0  0  0  0  0  0
    2.8295    0.6925    1.4263 H   0  0  0  0  0  0
    3.6944    0.1934   -0.9180 H   0  0  0  0  0  0
    6.1718   -0.7003   -2.1486 H   0  0  0  0  0  0
    9.2021   -1.3731    0.8413 H   0  0  0  0  0  0
    3.1509    1.4698    4.4544 H   0  0  0  0  0  0
    8.4946   -1.3760   -1.5427 H   0  0  0  0  0  0
    2.3926   -0.1660    5.9264 H   0  0  0  0  0  0
    3.4399   -1.2843    5.3225 H   0  0  0  0  0  0
    3.2978   -0.3000    5.4993 N   0  3  0  0  0  0
    4.0214    0.0490    6.1105 H   0  0  0  0  0  0
    1.1612    0.5831    3.2541 O   0  5  0  0  0  0
  1  2  1  0  0  0
  1  3  2  0  0  0
  1  4  1  0  0  0
  2  5  1  0  0  0
  2  6  2  0  0  0
  3  7  1  0  0  0
  3  8  1  0  0  0
  4  9  2  0  0  0
  4 14  1  0  0  0
  5 10  1  0  0  0
  5 15  1  0  0  0
  5 16  1  0  0  0
  6  7  1  0  0  0
  6 17  1  0  0  0
  7 18  1  0  0  0
  8 11  2  0  0  0
  8 19  1  0  0  0
  9 11  1  0  0  0
  9 20  1  0  0  0
 10 12  1  0  0  0
 10 21  1  0  0  0
 10 25  1  0  0  0
 11 22  1  0  0  0
 12 13  2  0  0  0
 12 27  1  0  0  0
 23 25  1  0  0  0
 24 25  1  0  0  0
 25 26  1  0  0  0
M  CHG  2  25   1  27  -1
M  END
> <i_ionizer_Ion_state_n>
3

> <i_ionizer_Tot_Q>
0

> <s_ionizer_Ion_centers>
25_27

> <s_ionizer_Ion_types>
N5_OM

> <s_ionizer_Ion_ctrs_in>
13_14

> <r_ionizer_Ionization_penalty>
0.000779521

> <r_ionizer_Ionization_penalty_charging>
0.000779521

> <r_ionizer_Ionization_penalty_neutral>
0

> <s_st_Chirality_1>
10_S_25_12_5_21

> <i_mmod_Serial_Number-OPLS-2005>
54

> <i_i_glide_lignum>
53

> <r_i_docking_score>
-7.32067

> <r_i_glide_gscore>
-7.32067

> <r_i_glide_lipo>
-1.15999

> <r_i_glide_hbond>
-0.966031

> <r_i_glide_metal>
0

> <r_i_glide_eburp>
-2.24068

> <r_i_glide_evdw>
-19.5303

> <r_i_glide_ecoul>
-11.9068

> <r_i_glide_erotb>
0.450645

> <r_i_glide_esite>
-0.651504

> <r_i_glide_emodel>
-56.7542

> <r_i_glide_energy>
-31.4372

> <r_i_glide_einternal>
3.70864

> <i_i_glide_confnum>
1

> <i_i_glide_posenum>
92

$$$$
C00230
                    3D
 Structure written by MMmdl.
 16 16  0  0  1  0            999 V2000
    1.8577    2.7388    3.4107 C   0  0  0  0  0  0
    1.6244    1.4522    3.9499 C   0  0  0  0  0  0
    3.1839    3.1210    3.1014 C   0  0  0  0  0  0
    0.7136    3.6860    3.1699 C   0  0  0  0  0  0
    2.6959    0.5659    4.1752 C   0  0  0  0  0  0
    4.2557    2.2353    3.3263 C   0  0  0  0  0  0
    0.8086    4.5257    2.2470 O   0  0  0  0  0  0
    4.0140    0.9565    3.8635 C   0  0  0  0  0  0
    2.4579   -0.6728    4.6959 O   0  0  0  0  0  0
    5.0555    0.0993    4.0807 O   0  0  0  0  0  0
    0.6206    1.1358    4.1948 H   0  0  0  0  0  0
    3.3905    4.0979    2.6884 H   0  0  0  0  0  0
    5.2621    2.5437    3.0843 H   0  0  0  0  0  0
    3.2638   -1.1005    4.9446 H   0  0  0  0  0  0
    4.8127   -0.6528    4.5985 H   0  0  0  0  0  0
   -0.2996    3.6061    3.8999 O   0  5  0  0  0  0
  1  2  2  0  0  0
  1  3  1  0  0  0
  1  4  1  0  0  0
  2  5  1  0  0  0
  2 11  1  0  0  0
  3  6  2  0  0  0
  3 12  1  0  0  0
  4  7  2  0  0  0
  4 16  1  0  0  0
  5  8  2  0  0  0
  5  9  1  0  0  0
  6  8  1  0  0  0
  6 13  1  0  0  0
  8 10  1  0  0  0
  9 14  1  0  0  0
 10 15  1  0  0  0
M  CHG  1  16  -1
M  END
> <i_ionizer_Ion_state_n>
1

> <i_ionizer_Tot_Q>
-1

> <s_ionizer_Ion_centers>
16

> <s_ionizer_Ion_types>
OM

> <s_ionizer_Ion_ctrs_in>
7

> <r_ionizer_Ionization_penalty>
0.00177657

> <r_ionizer_Ionization_penalty_charging>
0.00059219

> <r_ionizer_Ionization_penalty_neutral>
0.00118438

> <i_mmod_Serial_Number-OPLS-2005>
150

> <i_i_glide_lignum>
148

> <r_i_docking_score>
-7.30959

> <r_i_glide_gscore>
-7.30959

> <r_i_glide_lipo>
-0.533949

> <r_i_glide_hbond>
-1.6

> <r_i_glide_metal>
0

> <r_i_glide_eburp>
-2.5

> <r_i_glide_evdw>
-14.5207

> <r_i_glide_ecoul>
-10.824

> <r_i_glide_erotb>
0

> <r_i_glide_esite>
-0.431585

> <r_i_glide_emodel>
-51.2451

> <r_i_glide_energy>
-25.3447

> <r_i_glide_einternal>
1.67784

> <i_i_glide_confnum>
1

> <i_i_glide_posenum>
346

$$$$
C02505
                    3D
 Structure written by MMmdl.
 19 19  0  0  1  0            999 V2000
    3.4882    1.9763    2.9361 C   0  0  0  0  0  0
    3.0406    2.7144    1.8192 C   0  0  0  0  0  0
    4.2209    2.6263    3.9525 C   0  0  0  0  0  0
    3.1890    0.4897    3.0379 C   0  0  0  0  0  0
    3.3187    4.0918    1.7224 C   0  0  0  0  0  0
    4.4987    4.0038    3.8548 C   0  0  0  0  0  0
    2.1548    0.2126    4.1314 C   0  0  0  0  0  0
    4.0474    4.7368    2.7403 C   0  0  0  0  0  0
    2.4986   -0.6404    5.0993 N   0  0  0  0  0  0
    1.0537    0.7568    4.0999 O   0  0  0  0  0  0
    2.4801    2.2254    1.0357 H   0  0  0  0  0  0
    4.5716    2.0716    4.8105 H   0  0  0  0  0  0
    2.8155    0.1282    2.0788 H   0  0  0  0  0  0
    4.1028   -0.0677    3.2478 H   0  0  0  0  0  0
    2.9727    4.6534    0.8671 H   0  0  0  0  0  0
    5.0586    4.4982    4.6350 H   0  0  0  0  0  0
    4.2606    5.7930    2.6658 H   0  0  0  0  0  0
    1.8402   -0.8475    5.8359 H   0  0  0  0  0  0
    3.4147   -1.0641    5.0983 H   0  0  0  0  0  0
  1  2  1  0  0  0
  1  3  2  0  0  0
  1  4  1  0  0  0
  2  5  2  0  0  0
  2 11  1  0  0  0
  3  6  1  0  0  0
  3 12  1  0  0  0
  4  7  1  0  0  0
  4 13  1  0  0  0
  4 14  1  0  0  0
  5  8  1  0  0  0
  5 15  1  0  0  0
  6  8  2  0  0  0
  6 16  1  0  0  0
  7  9  1  0  0  0
  7 10  2  0  0  0
  8 17  1  0  0  0
  9 18  1  0  0  0
  9 19  1  0  0  0
M  END
> <i_ionizer_Ion_state_n>
0

> <i_ionizer_Tot_Q>
0

> <s_ionizer_Ion_centers>


> <s_ionizer_Ion_types>


> <s_ionizer_Ion_ctrs_in>


> <r_ionizer_Ionization_penalty>
0

> <r_ionizer_Ionization_penalty_charging>
0

> <r_ionizer_Ionization_penalty_neutral>
0

> <i_mmod_Serial_Number-OPLS-2005>
494

> <i_i_glide_lignum>
489

> <r_i_docking_score>
-7.3032

> <r_i_glide_gscore>
-7.3032

> <r_i_glide_lipo>
-0.598467

> <r_i_glide_hbond>
-0.823894

> <r_i_glide_metal>
0

> <r_i_glide_eburp>
-2.9

> <r_i_glide_evdw>
-17.0111

> <r_i_glide_ecoul>
-6.91584

> <r_i_glide_erotb>
0

> <r_i_glide_esite>
-0.928368

> <r_i_glide_emodel>
-32.196

> <r_i_glide_energy>
-23.9269

> <r_i_glide_einternal>
0.599841

> <i_i_glide_confnum>
1

> <i_i_glide_posenum>
591

$$$$
C00881
                    3D
 Structure written by MMmdl.
 29 30  0  0  1  0            999 V2000
    1.1810    1.8440    3.6249 C   0  0  2  0  0  0
    1.3898    3.1111    2.8263 N   0  0  0  0  0  0
    2.3970    1.5010    4.2905 O   0  0  0  0  0  0
    0.8953    0.6736    2.6915 C   0  0  0  0  0  0
    0.3788    4.1005    2.8520 C   0  0  0  0  0  0
    2.5266    3.3110    2.0555 C   0  0  0  0  0  0
    2.6721    0.1196    4.1788 C   0  0  1  0  0  0
    1.4968   -0.5102    3.4160 C   0  0  1  0  0  0
    0.5899    5.2357    2.1169 N   0  0  0  0  0  0
   -0.6565    3.9514    3.4999 O   0  0  0  0  0  0
    2.7178    4.4370    1.3336 C   0  0  0  0  0  0
    4.0083   -0.0973    3.4508 C   0  0  0  0  0  0
    0.5661   -1.0995    4.3003 O   0  0  0  0  0  0
    1.6732    5.4341    1.3924 C   0  0  0  0  0  0
    5.0905    0.0997    4.3369 O   0  0  0  0  0  0
    1.7880    6.5794    0.7066 N   0  0  0  0  0  0
    0.3473    2.0412    4.3009 H   0  0  0  0  0  0
   -0.1839    0.5342    2.6110 H   0  0  0  0  0  0
    1.3084    0.8156    1.6921 H   0  0  0  0  0  0
    3.2965    2.5558    2.0156 H   0  0  0  0  0  0
    2.7058   -0.3270    5.1746 H   0  0  0  0  0  0
    1.8604   -1.2490    2.7005 H   0  0  0  0  0  0
    3.6203    4.5538    0.7509 H   0  0  0  0  0  0
    4.0662   -1.0977    3.0219 H   0  0  0  0  0  0
    4.1040    0.6122    2.6285 H   0  0  0  0  0  0
    0.0921   -1.7680    3.8274 H   0  0  0  0  0  0
    5.0759   -0.5857    4.9879 H   0  0  0  0  0  0
    2.6067    6.7570    0.1433 H   0  0  0  0  0  0
    1.0486    7.2650    0.7578 H   0  0  0  0  0  0
  1  2  1  0  0  0
  1  3  1  0  0  0
  1  4  1  0  0  0
  1 17  1  0  0  0
  2  5  1  0  0  0
  2  6  1  0  0  0
  3  7  1  0  0  0
  4  8  1  0  0  0
  4 18  1  0  0  0
  4 19  1  0  0  0
  5  9  1  0  0  0
  5 10  2  0  0  0
  6 11  2  0  0  0
  6 20  1  0  0  0
  7 12  1  0  0  0
  7  8  1  0  0  0
  7 21  1  0  0  0
  8 13  1  0  0  0
  8 22  1  0  0  0
  9 14  2  0  0  0
 11 14  1  0  0  0
 11 23  1  0  0  0
 12 15  1  0  0  0
 12 24  1  0  0  0
 12 25  1  0  0  0
 13 26  1  0  0  0
 14 16  1  0  0  0
 15 27  1  0  0  0
 16 28  1  0  0  0
 16 29  1  0  0  0
M  END
> <i_ionizer_Ion_state_n>
0

> <i_ionizer_Tot_Q>
0

> <s_ionizer_Ion_centers>


> <s_ionizer_Ion_types>


> <s_ionizer_Ion_ctrs_in>


> <r_ionizer_Ionization_penalty>
0

> <r_ionizer_Ionization_penalty_charging>
0

> <r_ionizer_Ionization_penalty_neutral>
0

> <s_st_Chirality_1>
1_R_3_2_4_17

> <s_st_Chirality_2>
7_R_3_8_12_21

> <s_st_Chirality_3>
8_S_13_7_4_22

> <i_mmod_Serial_Number-OPLS-2005>
351

> <i_i_glide_lignum>
348

> <r_i_docking_score>
-7.29428

> <r_i_glide_gscore>
-7.29428

> <r_i_glide_lipo>
-0.676202

> <r_i_glide_hbond>
-1.62734

> <r_i_glide_metal>
0

> <r_i_glide_eburp>
-2.0665

> <r_i_glide_evdw>
-25.0857

> <r_i_glide_ecoul>
-9.30867

> <r_i_glide_erotb>
0.753176

> <r_i_glide_esite>
-0.739691

> <r_i_glide_emodel>
-54.0782

> <r_i_glide_energy>
-34.3944

> <r_i_glide_einternal>
3.50388

> <i_i_glide_confnum>
17

> <i_i_glide_posenum>
161

$$$$
C00137
                    3D
 Structure written by MMmdl.
 24 24  0  0  1  0            999 V2000
    3.5028   -0.1295    3.5127 C   0  0  1  0  0  0
    1.9803    0.0924    3.3803 C   0  0  1  0  0  0
    4.2834    0.5044    2.3422 C   0  0  2  0  0  0
    3.9451    0.5012    4.7002 O   0  0  0  0  0  0
    1.4489   -0.3526    2.0016 C   0  0  2  0  0  0
    1.3266   -0.6985    4.3553 O   0  0  0  0  0  0
    3.7485    0.0436    0.9707 C   0  0  1  0  0  0
    5.6333    0.0894    2.4411 O   0  0  0  0  0  0
    2.2314    0.2958    0.8410 C   0  0  1  0  0  0
    0.0995    0.0627    1.8981 O   0  0  0  0  0  0
    4.4161    0.7961   -0.0268 O   0  0  0  0  0  0
    1.7792   -0.2934   -0.3653 O   0  0  0  0  0  0
    3.7181   -1.1985    3.5652 H   0  0  0  0  0  0
    1.7437    1.1452    3.5458 H   0  0  0  0  0  0
    4.2332    1.5931    2.4090 H   0  0  0  0  0  0
    4.1856   -0.1763    5.3145 H   0  0  0  0  0  0
    1.5009   -1.4400    1.9172 H   0  0  0  0  0  0
    1.7981   -0.6013    5.1692 H   0  0  0  0  0  0
    3.9628   -1.0175    0.8286 H   0  0  0  0  0  0
    5.8639    0.0733    3.3584 H   0  0  0  0  0  0
    2.0334    1.3692    0.8169 H   0  0  0  0  0  0
    0.0856    1.0082    1.9248 H   0  0  0  0  0  0
    4.2140    0.4231   -0.8712 H   0  0  0  0  0  0
    2.4348   -0.1560   -1.0319 H   0  0  0  0  0  0
  1  2  1  0  0  0
  1  3  1  0  0  0
  1  4  1  0  0  0
  1 13  1  0  0  0
  2  5  1  0  0  0
  2  6  1  0  0  0
  2 14  1  0  0  0
  3  7  1  0  0  0
  3  8  1  0  0  0
  3 15  1  0  0  0
  4 16  1  0  0  0
  5  9  1  0  0  0
  5 10  1  0  0  0
  5 17  1  0  0  0
  6 18  1  0  0  0
  7 11  1  0  0  0
  7  9  1  0  0  0
  7 19  1  0  0  0
  8 20  1  0  0  0
  9 12  1  0  0  0
  9 21  1  0  0  0
 10 22  1  0  0  0
 11 23  1  0  0  0
 12 24  1  0  0  0
M  END
> <i_ionizer_Ion_state_n>
0

> <i_ionizer_Tot_Q>
0

> <s_ionizer_Ion_centers>


> <s_ionizer_Ion_types>


> <s_ionizer_Ion_ctrs_in>


> <r_ionizer_Ionization_penalty>
0

> <r_ionizer_Ionization_penalty_charging>
0

> <r_ionizer_Ionization_penalty_neutral>
0

> <i_mmod_Serial_Number-OPLS-2005>
101

> <i_i_glide_lignum>
99

> <r_i_docking_score>
-7.29304

> <r_i_glide_gscore>
-7.29304

> <r_i_glide_lipo>
-0.610107

> <r_i_glide_hbond>
-1.19127

> <r_i_glide_metal>
0

> <r_i_glide_eburp>
-2.42304

> <r_i_glide_evdw>
-19.7852

> <r_i_glide_ecoul>
-12.3533

> <r_i_glide_erotb>
0

> <r_i_glide_esite>
-0.250468

> <r_i_glide_emodel>
-40.6388

> <r_i_glide_energy>
-32.1386

> <r_i_glide_einternal>
4.34178

> <i_i_glide_confnum>
1

> <i_i_glide_posenum>
156

$$$$
C00620
                    3D
 Structure written by MMmdl.
 23 23  0  0  1  0            999 V2000
    1.4248    1.5495    2.4513 C   0  0  2  0  0  0
    1.4351    0.0961    1.9928 C   0  0  1  0  0  0
    2.2030    1.6194    3.6186 O   0  0  0  0  0  0
    0.1311    2.0853    2.6818 O   0  0  0  0  0  0
    1.7257   -0.6723    3.2629 C   0  0  1  0  0  0
    0.1448   -0.2539    1.5195 O   0  0  0  0  0  0
    2.5950    0.3097    4.0628 C   0  0  1  0  0  0
    0.0247    3.8721    2.8442 P   0  0  0  0  0  0
    0.5554   -1.0720    3.9536 O   0  0  0  0  0  0
    4.0900   -0.0194    3.9323 C   0  0  0  0  0  0
    0.9928    4.3800    1.7508 O   0  0  0  0  0  0
    4.8103    0.5203    5.0214 O   0  0  0  0  0  0
    1.8911    2.1325    1.6555 H   0  0  0  0  0  0
    2.1821   -0.0872    1.2199 H   0  0  0  0  0  0
    2.3112   -1.5612    3.0224 H   0  0  0  0  0  0
   -0.0306    0.2668    0.7514 H   0  0  0  0  0  0
    2.2894    0.2621    5.1094 H   0  0  0  0  0  0
    0.1584   -1.7809    3.4696 H   0  0  0  0  0  0
    4.2502   -1.0969    3.8829 H   0  0  0  0  0  0
    4.4864    0.4075    3.0107 H   0  0  0  0  0  0
    4.8962   -0.1474    5.6849 H   0  0  0  0  0  0
   -1.4753    4.1356    2.5880 O   0  5  0  0  0  0
    0.5002    4.0754    4.2997 O   0  5  0  0  0  0
  1  2  1  0  0  0
  1  3  1  0  0  0
  1  4  1  0  0  0
  1 13  1  0  0  0
  2  5  1  0  0  0
  2  6  1  0  0  0
  2 14  1  0  0  0
  3  7  1  0  0  0
  4  8  1  0  0  0
  5  9  1  0  0  0
  5  7  1  0  0  0
  5 15  1  0  0  0
  6 16  1  0  0  0
  7 10  1  0  0  0
  7 17  1  0  0  0
  8 11  2  0  0  0
  8 22  1  0  0  0
  8 23  1  0  0  0
  9 18  1  0  0  0
 10 12  1  0  0  0
 10 19  1  0  0  0
 10 20  1  0  0  0
 12 21  1  0  0  0
M  CHG  2  22  -1  23  -1
M  END
> <i_ionizer_Ion_state_n>
3

> <i_ionizer_Tot_Q>
-2

> <s_ionizer_Ion_centers>
22_23

> <s_ionizer_Ion_types>
OM_OM

> <s_ionizer_Ion_ctrs_in>
11_12

> <r_ionizer_Ionization_penalty>
1.49178e-05

> <r_ionizer_Ionization_penalty_charging>
1.49178e-05

> <r_ionizer_Ionization_penalty_neutral>
0

> <s_st_Chirality_1>
2_R_6_1_5_14

> <s_st_Chirality_2>
5_R_9_2_7_15

> <s_st_Chirality_3>
7_R_3_5_10_17

> <s_st_Chirality_4>
1_R_4_3_2_13

> <i_mmod_Serial_Number-OPLS-2005>
295

> <i_i_glide_lignum>
293

> <r_i_docking_score>
-7.28535

> <r_i_glide_gscore>
-7.28535

> <r_i_glide_lipo>
-0.418617

> <r_i_glide_hbond>
-2.23999

> <r_i_glide_metal>
0

> <r_i_glide_eburp>
-2.45988

> <r_i_glide_evdw>
-15.1796

> <r_i_glide_ecoul>
-14.1792

> <r_i_glide_erotb>
0.748286

> <r_i_glide_esite>
-0.282863

> <r_i_glide_emodel>
-63.0564

> <r_i_glide_energy>
-29.3588

> <r_i_glide_einternal>
5.05573

> <i_i_glide_confnum>
13

> <i_i_glide_posenum>
848

$$$$
C00387
                    3D
 Structure written by MMmdl.
 33 35  0  0  1  0            999 V2000
    1.6408    4.0235    2.5802 C   0  0  0  0  0  0
    1.8969    2.8364    3.2324 N   0  0  0  0  0  0
    0.2937    4.2783    2.7421 C   0  0  0  0  0  0
    2.5460    4.8000    1.9088 N   0  0  0  0  0  0
    3.2290    2.1650    3.3303 C   0  0  2  0  0  0
    0.6820    2.4457    3.7457 C   0  0  0  0  0  0
   -0.2992    3.2639    3.4862 N   0  0  0  0  0  0
   -0.2758    5.4645    2.1677 C   0  0  0  0  0  0
    2.0234    5.8917    1.3802 C   0  0  0  0  0  0
    3.6852    1.9317    2.0277 O   0  0  0  0  0  0
    3.0599    0.8020    4.0127 C   0  0  1  0  0  0
    0.6777    6.2331    1.4888 N   0  0  0  0  0  0
   -1.4423    5.8491    2.2095 O   0  0  0  0  0  0
    2.8115    6.7318    0.6981 N   0  0  0  0  0  0
    3.8088    0.5332    1.7743 C   0  0  1  0  0  0
    2.9016   -0.1231    2.8168 C   0  0  1  0  0  0
    4.1908    0.4837    4.8017 O   0  0  0  0  0  0
    3.4327    0.2334    0.3148 C   0  0  0  0  0  0
    3.2634   -1.4587    3.1159 O   0  0  0  0  0  0
    4.0039   -0.9901   -0.0999 O   0  0  0  0  0  0
    3.8579    2.8735    3.8714 H   0  0  0  0  0  0
    0.5414    1.5401    4.3172 H   0  0  0  0  0  0
    2.1808    0.7871    4.6588 H   0  0  0  0  0  0
    0.3463    7.0836    1.0592 H   0  0  0  0  0  0
    3.7933    6.5170    0.5991 H   0  0  0  0  0  0
    2.4364    7.5725    0.2844 H   0  0  0  0  0  0
    4.8499    0.2638    1.9620 H   0  0  0  0  0  0
    1.8658   -0.0977    2.4746 H   0  0  0  0  0  0
    4.1092   -0.4210    5.0660 H   0  0  0  0  0  0
    2.3506    0.1921    0.1885 H   0  0  0  0  0  0
    3.8035    1.0256   -0.3362 H   0  0  0  0  0  0
    3.8842   -1.4415    3.8300 H   0  0  0  0  0  0
    3.9957   -1.0217   -1.0448 H   0  0  0  0  0  0
  1  2  1  0  0  0
  1  3  2  0  0  0
  1  4  1  0  0  0
  2  5  1  0  0  0
  2  6  1  0  0  0
  3  7  1  0  0  0
  3  8  1  0  0  0
  4  9  2  0  0  0
  5 10  1  0  0  0
  5 11  1  0  0  0
  5 21  1  0  0  0
  6  7  2  0  0  0
  6 22  1  0  0  0
  8 12  1  0  0  0
  8 13  2  0  0  0
  9 14  1  0  0  0
  9 12  1  0  0  0
 10 15  1  0  0  0
 11 16  1  0  0  0
 11 17  1  0  0  0
 11 23  1  0  0  0
 12 24  1  0  0  0
 14 25  1  0  0  0
 14 26  1  0  0  0
 15 18  1  0  0  0
 15 16  1  0  0  0
 15 27  1  0  0  0
 16 19  1  0  0  0
 16 28  1  0  0  0
 17 29  1  0  0  0
 18 20  1  0  0  0
 18 30  1  0  0  0
 18 31  1  0  0  0
 19 32  1  0  0  0
 20 33  1  0  0  0
M  END
> <i_ionizer_Ion_state_n>
0

> <i_ionizer_Tot_Q>
0

> <s_ionizer_Ion_centers>


> <s_ionizer_Ion_types>


> <s_ionizer_Ion_ctrs_in>


> <r_ionizer_Ionization_penalty>
1.87357e-05

> <r_ionizer_Ionization_penalty_charging>
0

> <r_ionizer_Ionization_penalty_neutral>
1.87357e-05

> <s_st_Chirality_1>
5_R_10_2_11_21

> <s_st_Chirality_2>
11_R_17_5_16_23

> <s_st_Chirality_3>
15_R_10_16_18_27

> <s_st_Chirality_4>
16_R_19_11_15_28

> <i_mmod_Serial_Number-OPLS-2005>
221

> <i_i_glide_lignum>
219

> <r_i_docking_score>
-7.26754

> <r_i_glide_gscore>
-7.26754

> <r_i_glide_lipo>
-0.546961

> <r_i_glide_hbond>
-1.54721

> <r_i_glide_metal>
0

> <r_i_glide_eburp>
-1.64208

> <r_i_glide_evdw>
-24.1719

> <r_i_glide_ecoul>
-12.0594

> <r_i_glide_erotb>
0.515879

> <r_i_glide_esite>
-0.907477

> <r_i_glide_emodel>
-57.3508

> <r_i_glide_energy>
-36.2313

> <r_i_glide_einternal>
7.96442

> <i_i_glide_confnum>
2

> <i_i_glide_posenum>
220

$$$$
C00642
                    3D
 Structure written by MMmdl.
 18 18  0  0  1  0            999 V2000
    1.9015    2.1222    3.0794 C   0  0  0  0  0  0
    3.1065    2.8480    3.1935 C   0  0  0  0  0  0
    1.7975    0.8468    3.6747 C   0  0  0  0  0  0
    0.7204    2.7140    2.3278 C   0  0  0  0  0  0
    4.1992    2.3016    3.8946 C   0  0  0  0  0  0
    2.8902    0.3001    4.3755 C   0  0  0  0  0  0
   -0.1027    3.5557    3.3042 C   0  0  0  0  0  0
    4.0919    1.0276    4.4859 C   0  0  0  0  0  0
    0.4999    4.0446    4.2853 O   0  0  0  0  0  0
    5.1520    0.5004    5.1643 O   0  0  0  0  0  0
    3.1956    3.8239    2.7389 H   0  0  0  0  0  0
    0.8795    0.2838    3.5897 H   0  0  0  0  0  0
    1.0680    3.3328    1.4995 H   0  0  0  0  0  0
    0.1036    1.9211    1.9027 H   0  0  0  0  0  0
    5.1193    2.8613    3.9764 H   0  0  0  0  0  0
    2.8010   -0.6778    4.8252 H   0  0  0  0  0  0
    5.0125   -0.3952    5.4307 H   0  0  0  0  0  0
   -1.3182    3.7017    3.0484 O   0  5  0  0  0  0
  1  2  1  0  0  0
  1  3  2  0  0  0
  1  4  1  0  0  0
  2  5  2  0  0  0
  2 11  1  0  0  0
  3  6  1  0  0  0
  3 12  1  0  0  0
  4  7  1  0  0  0
  4 13  1  0  0  0
  4 14  1  0  0  0
  5  8  1  0  0  0
  5 15  1  0  0  0
  6  8  2  0  0  0
  6 16  1  0  0  0
  7  9  2  0  0  0
  7 18  1  0  0  0
  8 10  1  0  0  0
 10 17  1  0  0  0
M  CHG  1  18  -1
M  END
> <i_ionizer_Ion_state_n>
1

> <i_ionizer_Tot_Q>
-1

> <s_ionizer_Ion_centers>
18

> <s_ionizer_Ion_types>
OM

> <s_ionizer_Ion_ctrs_in>
9

> <r_ionizer_Ionization_penalty>
0.00118438

> <r_ionizer_Ionization_penalty_charging>
0.00059219

> <r_ionizer_Ionization_penalty_neutral>
0.00059219

> <i_mmod_Serial_Number-OPLS-2005>
305

> <i_i_glide_lignum>
303

> <r_i_docking_score>
-7.20044

> <r_i_glide_gscore>
-7.20044

> <r_i_glide_lipo>
-0.623013

> <r_i_glide_hbond>
-2.03827

> <r_i_glide_metal>
0

> <r_i_glide_eburp>
-2.9

> <r_i_glide_evdw>
-12.9041

> <r_i_glide_ecoul>
-10.3443

> <r_i_glide_erotb>
0.737646

> <r_i_glide_esite>
-0.310049

> <r_i_glide_emodel>
-51.2741

> <r_i_glide_energy>
-23.2484

> <r_i_glide_einternal>
0.609327

> <i_i_glide_confnum>
2

> <i_i_glide_posenum>
21

$$$$
C03410
                    3D
 Structure written by MMmdl.
 40 40  0  0  1  0            999 V2000
    2.2956    2.1778    2.3380 C   0  0  1  0  0  0
    3.7615    1.9072    2.7691 C   0  0  1  0  0  0
    1.3715    1.7560    3.3486 O   0  0  0  0  0  0
    1.9895    3.6539    1.9641 C   0  0  1  0  0  0
    3.8994    0.4467    3.2356 C   0  0  2  0  0  0
    4.6514    2.1292    1.6288 N   0  0  0  0  0  0
    1.4162    0.4159    3.7596 C   0  0  2  0  0  0
    1.3071    4.5225    3.0554 C   0  0  1  0  0  0
    3.1454    4.3063    1.4724 O   0  0  0  0  0  0
    2.8377    0.1325    4.3023 C   0  0  0  0  0  0
    5.1662    0.2528    3.8346 O   0  0  0  0  0  0
    4.6654    1.4256    0.4854 C   0  0  0  0  0  0
    0.9711   -0.5671    2.5802 C   0  0  0  0  0  0
    0.5000    0.2059    4.8076 O   0  0  0  0  0  0
    0.5195    5.7265    2.5016 C   0  0  0  0  0  0
    0.4242    3.7445    3.8381 O   0  0  0  0  0  0
    3.7189    0.2248    0.3947 C   0  0  0  0  0  0
    5.3707    1.7157   -0.4800 O   0  0  0  0  0  0
   -0.1477   -0.3427    2.0676 O   0  0  0  0  0  0
    1.2434    6.3729    1.4745 O   0  0  0  0  0  0
    4.3873   -0.9225   -0.0963 O   0  0  0  0  0  0
    2.1149    1.5878    1.4399 H   0  0  0  0  0  0
    4.0177    2.5621    3.6041 H   0  0  0  0  0  0
    1.3065    3.6360    1.1150 H   0  0  0  0  0  0
    3.8077   -0.2369    2.3904 H   0  0  0  0  0  0
    5.2926    2.9068    1.6945 H   0  0  0  0  0  0
    2.0726    4.9047    3.7322 H   0  0  0  0  0  0
    3.4276    3.8678    0.6849 H   0  0  0  0  0  0
    2.9056   -0.9065    4.6285 H   0  0  0  0  0  0
    2.9959    0.7545    5.1852 H   0  0  0  0  0  0
    5.1451   -0.5552    4.3243 H   0  0  0  0  0  0
    0.8852   -0.4287    5.3923 H   0  0  0  0  0  0
    0.3372    6.4539    3.2936 H   0  0  0  0  0  0
   -0.4574    5.4280    2.1228 H   0  0  0  0  0  0
    0.8749    2.9461    4.0796 H   0  0  0  0  0  0
    3.3102    0.0127    1.3830 H   0  0  0  0  0  0
    2.8831    0.4624   -0.2642 H   0  0  0  0  0  0
    0.7068    7.0634    1.1162 H   0  0  0  0  0  0
    4.4444   -0.8581   -1.0374 H   0  0  0  0  0  0
    1.7598   -1.4972    2.3019 O   0  5  0  0  0  0
  1  2  1  0  0  0
  1  3  1  0  0  0
  1  4  1  0  0  0
  1 22  1  0  0  0
  2  5  1  0  0  0
  2  6  1  0  0  0
  2 23  1  0  0  0
  3  7  1  0  0  0
  4  8  1  0  0  0
  4  9  1  0  0  0
  4 24  1  0  0  0
  5 10  1  0  0  0
  5 11  1  0  0  0
  5 25  1  0  0  0
  6 12  1  0  0  0
  6 26  1  0  0  0
  7 13  1  0  0  0
  7 14  1  0  0  0
  7 10  1  0  0  0
  8 15  1  0  0  0
  8 16  1  0  0  0
  8 27  1  0  0  0
  9 28  1  0  0  0
 10 29  1  0  0  0
 10 30  1  0  0  0
 11 31  1  0  0  0
 12 17  1  0  0  0
 12 18  2  0  0  0
 13 19  2  0  0  0
 13 40  1  0  0  0
 14 32  1  0  0  0
 15 20  1  0  0  0
 15 33  1  0  0  0
 15 34  1  0  0  0
 16 35  1  0  0  0
 17 21  1  0  0  0
 17 36  1  0  0  0
 17 37  1  0  0  0
 20 38  1  0  0  0
 21 39  1  0  0  0
M  CHG  1  40  -1
M  END
> <i_ionizer_Ion_state_n>
1

> <i_ionizer_Tot_Q>
-1

> <s_ionizer_Ion_centers>
40

> <s_ionizer_Ion_types>
OM

> <s_ionizer_Ion_ctrs_in>
19

> <r_ionizer_Ionization_penalty>
0.00059219

> <r_ionizer_Ionization_penalty_charging>
0.00059219

> <r_ionizer_Ionization_penalty_neutral>
0

> <s_st_Chirality_1>
1_R_3_4_2_22

> <s_st_Chirality_2>
2_R_6_1_5_23

> <s_st_Chirality_3>
4_S_9_8_1_24

> <s_st_Chirality_4>
5_S_11_2_10_25

> <s_st_Chirality_5>
8_R_16_4_15_27

> <s_st_Chirality_6>
7_R_3_14_13_10

> <i_mmod_Serial_Number-OPLS-2005>
541

> <i_i_glide_lignum>
535

> <r_i_docking_score>
-7.1826

> <r_i_glide_gscore>
-7.1826

> <r_i_glide_lipo>
-0.658851

> <r_i_glide_hbond>
-2.37406

> <r_i_glide_metal>
0

> <r_i_glide_eburp>
-0.957256

> <r_i_glide_evdw>
-14.893

> <r_i_glide_ecoul>
-19.9949

> <r_i_glide_erotb>
1.22115

> <r_i_glide_esite>
-1.22265

> <r_i_glide_emodel>
-57.266

> <r_i_glide_energy>
-34.8879

> <r_i_glide_einternal>
16.3829

> <i_i_glide_confnum>
33

> <i_i_glide_posenum>
765

$$$$
C01762
                    3D
 Structure written by MMmdl.
 32 34  0  0  1  0            999 V2000
    1.6232    3.9839    2.4969 C   0  0  0  0  0  0
    1.8958    2.8056    3.1741 N   0  0  0  0  0  0
    0.3091    4.2781    2.6748 C   0  0  0  0  0  0
    2.4888    4.7355    1.7842 N   0  0  0  0  0  0
    3.2062    2.0946    3.2750 C   0  0  2  0  0  0
    0.7074    2.4706    3.7209 C   0  0  0  0  0  0
   -0.3002    3.3098    3.4653 N   0  0  0  0  0  0
   -0.2109    5.5145    2.0335 C   0  0  0  0  0  0
    2.0583    5.8758    1.1814 C   0  0  0  0  0  0
    3.8358    2.1438    1.9956 O   0  0  0  0  0  0
    2.9488    0.6146    3.5318 C   0  0  1  0  0  0
    0.7362    6.2031    1.3366 N   0  0  0  0  0  0
   -1.3805    5.8813    2.1234 O   0  0  0  0  0  0
    2.8207    6.5813    0.5269 O   0  0  0  0  0  0
    4.3456    0.8829    1.6205 C   0  0  1  0  0  0
    4.0753   -0.0728    2.7924 C   0  0  1  0  0  0
    2.9839    0.3181    4.9142 O   0  0  0  0  0  0
    3.6623    0.4028    0.3305 C   0  0  0  0  0  0
    5.2162   -0.2818    3.6036 O   0  0  0  0  0  0
    4.2225   -0.8207   -0.0996 O   0  0  0  0  0  0
    3.4531    4.4452    1.7059 H   0  0  0  0  0  0
    3.7342    2.6001    4.0847 H   0  0  0  0  0  0
    0.5744    1.5872    4.3277 H   0  0  0  0  0  0
    1.9759    0.3088    3.1434 H   0  0  0  0  0  0
    0.4295    7.0511    0.8838 H   0  0  0  0  0  0
    5.4259    0.9507    1.4791 H   0  0  0  0  0  0
    3.7264   -1.0321    2.4072 H   0  0  0  0  0  0
    3.3992   -0.5261    5.0149 H   0  0  0  0  0  0
    2.5889    0.2813    0.4779 H   0  0  0  0  0  0
    3.7975    1.1414   -0.4600 H   0  0  0  0  0  0
    4.9754   -0.8762    4.2996 H   0  0  0  0  0  0
    4.1032   -0.8945   -1.0346 H   0  0  0  0  0  0
  1  2  1  0  0  0
  1  3  2  0  0  0
  1  4  1  0  0  0
  2  5  1  0  0  0
  2  6  1  0  0  0
  3  7  1  0  0  0
  3  8  1  0  0  0
  4  9  1  0  0  0
  4 21  1  0  0  0
  5 10  1  0  0  0
  5 11  1  0  0  0
  5 22  1  0  0  0
  6  7  2  0  0  0
  6 23  1  0  0  0
  8 12  1  0  0  0
  8 13  2  0  0  0
  9 14  2  0  0  0
  9 12  1  0  0  0
 10 15  1  0  0  0
 11 16  1  0  0  0
 11 17  1  0  0  0
 11 24  1  0  0  0
 12 25  1  0  0  0
 15 18  1  0  0  0
 15 16  1  0  0  0
 15 26  1  0  0  0
 16 19  1  0  0  0
 16 27  1  0  0  0
 17 28  1  0  0  0
 18 20  1  0  0  0
 18 29  1  0  0  0
 18 30  1  0  0  0
 19 31  1  0  0  0
 20 32  1  0  0  0
M  END
> <i_ionizer_Ion_state_n>
0

> <i_ionizer_Tot_Q>
0

> <s_ionizer_Ion_centers>


> <s_ionizer_Ion_types>


> <s_ionizer_Ion_ctrs_in>


> <r_ionizer_Ionization_penalty>
0.41068

> <r_ionizer_Ionization_penalty_charging>
0

> <r_ionizer_Ionization_penalty_neutral>
0.41068

> <s_st_Chirality_1>
5_R_10_2_11_22

> <s_st_Chirality_2>
11_R_17_5_16_24

> <s_st_Chirality_3>
15_R_10_16_18_26

> <s_st_Chirality_4>
16_R_19_11_15_27

> <i_mmod_Serial_Number-OPLS-2005>
456

> <i_i_glide_lignum>
452

> <r_i_docking_score>
-7.18233

> <r_i_glide_gscore>
-7.18233

> <r_i_glide_lipo>
-0.538218

> <r_i_glide_hbond>
-1.55976

> <r_i_glide_metal>
0

> <r_i_glide_eburp>
-1.63462

> <r_i_glide_evdw>
-22.9662

> <r_i_glide_ecoul>
-13.2968

> <r_i_glide_erotb>
0.512774

> <r_i_glide_esite>
-0.795528

> <r_i_glide_emodel>
-57.8986

> <r_i_glide_energy>
-36.263

> <r_i_glide_einternal>
6.15653

> <i_i_glide_confnum>
11

> <i_i_glide_posenum>
647

$$$$
C00294
                    3D
 Structure written by MMmdl.
 31 33  0  0  1  0            999 V2000
    1.8936    2.8281    3.1515 N   0  0  0  0  0  0
    1.6712    3.9990    2.4347 C   0  0  0  0  0  0
    3.1912    2.1020    3.3154 C   0  0  2  0  0  0
    0.6899    2.5079    3.6686 C   0  0  0  0  0  0
    0.3415    4.2910    2.5783 C   0  0  0  0  0  0
    2.6310    4.7020    1.7353 N   0  0  0  0  0  0
    3.8922    2.1589    2.0742 O   0  0  0  0  0  0
    2.9066    0.6220    3.5421 C   0  0  1  0  0  0
   -0.3011    3.3447    3.3672 N   0  0  0  0  0  0
   -0.1765    5.5087    1.9099 C   0  0  0  0  0  0
    2.1397    5.7693    1.1599 C   0  0  0  0  0  0
    4.4076    0.8959    1.7124 C   0  0  1  0  0  0
    4.0652   -0.0688    2.8577 C   0  0  1  0  0  0
    2.8648    0.3116    4.9216 O   0  0  0  0  0  0
    0.7845    6.1798    1.2299 N   0  0  0  0  0  0
   -1.3492    5.8723    1.9658 O   0  0  0  0  0  0
    3.7932    0.4354    0.3812 C   0  0  0  0  0  0
    5.1584   -0.2974    3.7273 O   0  0  0  0  0  0
    4.4601   -0.7131   -0.1000 O   0  0  0  0  0  0
    3.6800    2.5933    4.1578 H   0  0  0  0  0  0
    0.5334    1.6371    4.2877 H   0  0  0  0  0  0
    1.9534    0.3297    3.0984 H   0  0  0  0  0  0
    2.7579    6.4431    0.5648 H   0  0  0  0  0  0
    5.4947    0.9548    1.6313 H   0  0  0  0  0  0
    3.7293   -1.0209    2.4442 H   0  0  0  0  0  0
    3.2105   -0.5625    5.0283 H   0  0  0  0  0  0
    0.5085    7.0221    0.7472 H   0  0  0  0  0  0
    2.7303    0.2200    0.4940 H   0  0  0  0  0  0
    3.8845    1.2256   -0.3644 H   0  0  0  0  0  0
    4.8954   -0.9471    4.3632 H   0  0  0  0  0  0
    4.2733   -0.8057   -1.0222 H   0  0  0  0  0  0
  1  2  1  0  0  0
  1  3  1  0  0  0
  1  4  1  0  0  0
  2  5  2  0  0  0
  2  6  1  0  0  0
  3  7  1  0  0  0
  3  8  1  0  0  0
  3 20  1  0  0  0
  4  9  2  0  0  0
  4 21  1  0  0  0
  5 10  1  0  0  0
  5  9  1  0  0  0
  6 11  2  0  0  0
  7 12  1  0  0  0
  8 13  1  0  0  0
  8 14  1  0  0  0
  8 22  1  0  0  0
 10 15  1  0  0  0
 10 16  2  0  0  0
 11 15  1  0  0  0
 11 23  1  0  0  0
 12 17  1  0  0  0
 12 13  1  0  0  0
 12 24  1  0  0  0
 13 18  1  0  0  0
 13 25  1  0  0  0
 14 26  1  0  0  0
 15 27  1  0  0  0
 17 19  1  0  0  0
 17 28  1  0  0  0
 17 29  1  0  0  0
 18 30  1  0  0  0
 19 31  1  0  0  0
M  END
> <i_ionizer_Ion_state_n>
0

> <i_ionizer_Tot_Q>
0

> <s_ionizer_Ion_centers>


> <s_ionizer_Ion_types>


> <s_ionizer_Ion_ctrs_in>


> <r_ionizer_Ionization_penalty>
1.87357e-05

> <r_ionizer_Ionization_penalty_charging>
0

> <r_ionizer_Ionization_penalty_neutral>
1.87357e-05

> <s_st_Chirality_1>
3_R_7_1_8_20

> <s_st_Chirality_2>
8_R_14_3_13_22

> <s_st_Chirality_3>
12_R_7_13_17_24

> <s_st_Chirality_4>
13_R_18_8_12_25

> <i_mmod_Serial_Number-OPLS-2005>
180

> <i_i_glide_lignum>
178

> <r_i_docking_score>
-7.17482

> <r_i_glide_gscore>
-7.17482

> <r_i_glide_lipo>
-0.536448

> <r_i_glide_hbond>
-1.37438

> <r_i_glide_metal>
0

> <r_i_glide_eburp>
-1.75583

> <r_i_glide_evdw>
-22.7905

> <r_i_glide_ecoul>
-12.5433

> <r_i_glide_erotb>
0.566968

> <r_i_glide_esite>
-0.997572

> <r_i_glide_emodel>
-55.743

> <r_i_glide_energy>
-35.3338

> <r_i_glide_einternal>
5.99041

> <i_i_glide_confnum>
11

> <i_i_glide_posenum>
682

$$$$
C05512
                    3D
 Structure written by MMmdl.
 30 32  0  0  1  0            999 V2000
    1.8977    3.0726    2.5635 N   0  0  0  0  0  0
    1.5651    4.3124    2.0244 C   0  0  0  0  0  0
    3.0294    2.1800    2.1464 C   0  0  2  0  0  0
    0.9543    2.8461    3.5012 C   0  0  0  0  0  0
    0.4590    4.7452    2.7052 C   0  0  0  0  0  0
    2.2422    4.9481    1.0030 N   0  0  0  0  0  0
    2.5831    0.8541    2.1718 O   0  0  0  0  0  0
    4.1668    2.2638    3.1643 C   0  0  0  0  0  0
    0.0550    3.8158    3.6548 N   0  0  0  0  0  0
   -0.1117    6.0627    2.3361 C   0  0  0  0  0  0
    1.7121    6.1061    0.7036 C   0  0  0  0  0  0
    3.0824    0.1726    3.3270 C   0  0  1  0  0  0
    3.7134    1.2610    4.2041 C   0  0  1  0  0  0
    0.5738    6.6667    1.3355 N   0  0  0  0  0  0
   -1.0992    6.5552    2.8770 O   0  0  0  0  0  0
    1.9631   -0.6306    4.0089 C   0  0  0  0  0  0
    4.8113    0.7805    4.9512 O   0  0  0  0  0  0
    1.3474   -1.4990    3.0806 O   0  0  0  0  0  0
    3.2901    2.5164    1.1424 H   0  0  0  0  0  0
    0.9173    1.9423    4.0897 H   0  0  0  0  0  0
    5.0868    1.9374    2.6768 H   0  0  0  0  0  0
    4.3120    3.2721    3.5528 H   0  0  0  0  0  0
    2.1211    6.7450   -0.0805 H   0  0  0  0  0  0
    3.8572   -0.5055    2.9640 H   0  0  0  0  0  0
    2.9727    1.7103    4.8673 H   0  0  0  0  0  0
    0.2451    7.5700    1.0277 H   0  0  0  0  0  0
    2.3460   -1.2102    4.8487 H   0  0  0  0  0  0
    1.2041    0.0465    4.4015 H   0  0  0  0  0  0
    4.6214   -0.1074    5.2165 H   0  0  0  0  0  0
    0.5930   -1.8937    3.4915 H   0  0  0  0  0  0
  1  2  1  0  0  0
  1  3  1  0  0  0
  1  4  1  0  0  0
  2  5  2  0  0  0
  2  6  1  0  0  0
  3  7  1  0  0  0
  3  8  1  0  0  0
  3 19  1  0  0  0
  4  9  2  0  0  0
  4 20  1  0  0  0
  5 10  1  0  0  0
  5  9  1  0  0  0
  6 11  2  0  0  0
  7 12  1  0  0  0
  8 13  1  0  0  0
  8 21  1  0  0  0
  8 22  1  0  0  0
 10 14  1  0  0  0
 10 15  2  0  0  0
 11 14  1  0  0  0
 11 23  1  0  0  0
 12 16  1  0  0  0
 12 13  1  0  0  0
 12 24  1  0  0  0
 13 17  1  0  0  0
 13 25  1  0  0  0
 14 26  1  0  0  0
 16 18  1  0  0  0
 16 27  1  0  0  0
 16 28  1  0  0  0
 17 29  1  0  0  0
 18 30  1  0  0  0
M  END
> <i_ionizer_Ion_state_n>
0

> <i_ionizer_Tot_Q>
0

> <s_ionizer_Ion_centers>


> <s_ionizer_Ion_types>


> <s_ionizer_Ion_ctrs_in>


> <r_ionizer_Ionization_penalty>
1.87357e-05

> <r_ionizer_Ionization_penalty_charging>
0

> <r_ionizer_Ionization_penalty_neutral>
1.87357e-05

> <s_st_Chirality_1>
3_R_7_1_8_19

> <s_st_Chirality_2>
12_R_7_13_16_24

> <s_st_Chirality_3>
13_S_17_12_8_25

> <i_mmod_Serial_Number-OPLS-2005>
736

> <i_i_glide_lignum>
727

> <r_i_docking_score>
-7.16783

> <r_i_glide_gscore>
-7.16783

> <r_i_glide_lipo>
-0.558787

> <r_i_glide_hbond>
-1.49089

> <r_i_glide_metal>
0

> <r_i_glide_eburp>
-1.87703

> <r_i_glide_evdw>
-24.7318

> <r_i_glide_ecoul>
-10.0024

> <r_i_glide_erotb>
0.630319

> <r_i_glide_esite>
-0.892652

> <r_i_glide_emodel>
-56.6498

> <r_i_glide_energy>
-34.7342

> <r_i_glide_einternal>
4.18416

> <i_i_glide_confnum>
5

> <i_i_glide_posenum>
36

$$$$
C00031
                    3D
 Structure written by MMmdl.
 24 24  0  0  1  0            999 V2000
    4.7694    0.5384    3.3136 C   0  0  2  0  0  0
    3.5064   -0.3255    3.5106 C   0  0  2  0  0  0
    5.3576    0.1681    2.0602 O   0  0  0  0  0  0
    5.8350    0.3145    4.4002 C   0  0  0  0  0  0
    2.5380   -0.1560    2.3248 C   0  0  1  0  0  0
    2.8524    0.0219    4.7273 O   0  0  0  0  0  0
    4.5684    0.4595    0.9319 C   0  0  2  0  0  0
    5.2967    0.4994    5.7048 O   0  0  0  0  0  0
    3.2633   -0.3564    0.9784 C   0  0  2  0  0  0
    1.4733   -1.0963    2.4368 O   0  0  0  0  0  0
    5.3232    0.1076   -0.2076 O   0  0  0  0  0  0
    2.4320    0.0772   -0.0940 O   0  0  0  0  0  0
    4.4991    1.5960    3.2886 H   0  0  0  0  0  0
    3.8098   -1.3720    3.5719 H   0  0  0  0  0  0
    6.2359   -0.6973    4.3362 H   0  0  0  0  0  0
    6.6731    0.9975    4.2588 H   0  0  0  0  0  0
    2.1194    0.8516    2.3559 H   0  0  0  0  0  0
    3.2025   -0.5475    5.4273 H   0  0  0  0  0  0
    4.3773    1.5411    0.9594 H   0  0  0  0  0  0
    4.9114   -0.3367    6.0010 H   0  0  0  0  0  0
    3.5055   -1.4122    0.8441 H   0  0  0  0  0  0
    0.8455   -0.7607    3.0924 H   0  0  0  0  0  0
    4.7153   -0.2849   -0.8493 H   0  0  0  0  0  0
    2.7993   -0.2754   -0.9171 H   0  0  0  0  0  0
  1  2  1  0  0  0
  1  3  1  0  0  0
  1  4  1  0  0  0
  1 13  1  0  0  0
  2  5  1  0  0  0
  2  6  1  0  0  0
  2 14  1  0  0  0
  3  7  1  0  0  0
  4  8  1  0  0  0
  4 15  1  0  0  0
  4 16  1  0  0  0
  5  9  1  0  0  0
  5 10  1  0  0  0
  5 17  1  0  0  0
  6 18  1  0  0  0
  7 11  1  0  0  0
  7  9  1  0  0  0
  7 19  1  0  0  0
  8 20  1  0  0  0
  9 12  1  0  0  0
  9 21  1  0  0  0
 10 22  1  0  0  0
 11 23  1  0  0  0
 12 24  1  0  0  0
M  END
> <i_ionizer_Ion_state_n>
0

> <i_ionizer_Tot_Q>
0

> <s_ionizer_Ion_centers>


> <s_ionizer_Ion_types>


> <s_ionizer_Ion_ctrs_in>


> <r_ionizer_Ionization_penalty>
0

> <r_ionizer_Ionization_penalty_charging>
0

> <r_ionizer_Ionization_penalty_neutral>
0

> <s_st_Chirality_1>
1_R_3_2_4_13

> <s_st_Chirality_2>
2_R_6_5_1_14

> <s_st_Chirality_3>
5_S_10_9_2_17

> <s_st_Chirality_4>
9_R_12_7_5_21

> <s_st_Chirality_5>
7_R_3_11_9_19

> <i_mmod_Serial_Number-OPLS-2005>
23

> <i_i_glide_lignum>
23

> <r_i_docking_score>
-7.16697

> <r_i_glide_gscore>
-7.16697

> <r_i_glide_lipo>
-0.507223

> <r_i_glide_hbond>
-1.6837

> <r_i_glide_metal>
0

> <r_i_glide_eburp>
-2.42304

> <r_i_glide_evdw>
-16.1103

> <r_i_glide_ecoul>
-16.7027

> <r_i_glide_erotb>
0.554751

> <r_i_glide_esite>
-0.148658

> <r_i_glide_emodel>
-44.3515

> <r_i_glide_energy>
-32.813

> <r_i_glide_einternal>
3.30879

> <i_i_glide_confnum>
1

> <i_i_glide_posenum>
134

$$$$
C04043
                    3D
 Structure written by MMmdl.
 19 19  0  0  1  0            999 V2000
    2.7759    2.8323    3.0988 C   0  0  0  0  0  0
    2.4006    1.5255    3.4747 C   0  0  0  0  0  0
    4.0191    3.3505    3.5179 C   0  0  0  0  0  0
    1.8438    3.6785    2.2540 C   0  0  0  0  0  0
    3.2655    0.7399    4.2613 C   0  0  0  0  0  0
    4.8843    2.5653    4.3047 C   0  0  0  0  0  0
    0.7687    4.3577    3.0973 C   0  0  0  0  0  0
    4.5094    1.2591    4.6772 C   0  0  0  0  0  0
    2.8981   -0.5240    4.6201 O   0  0  0  0  0  0
    0.1000    3.7091    3.8990 O   0  0  0  0  0  0
    5.3507    0.4999    5.4400 O   0  0  0  0  0  0
    1.4489    1.1234    3.1590 H   0  0  0  0  0  0
    4.3122    4.3513    3.2358 H   0  0  0  0  0  0
    2.4188    4.4397    1.7260 H   0  0  0  0  0  0
    1.3658    3.0539    1.4989 H   0  0  0  0  0  0
    5.8349    2.9695    4.6203 H   0  0  0  0  0  0
    0.6419    5.4292    2.9398 H   0  0  0  0  0  0
    3.5908   -0.9629    5.0914 H   0  0  0  0  0  0
    5.0824   -0.4041    5.5009 H   0  0  0  0  0  0
  1  2  2  0  0  0
  1  3  1  0  0  0
  1  4  1  0  0  0
  2  5  1  0  0  0
  2 12  1  0  0  0
  3  6  2  0  0  0
  3 13  1  0  0  0
  4  7  1  0  0  0
  4 14  1  0  0  0
  4 15  1  0  0  0
  5  8  2  0  0  0
  5  9  1  0  0  0
  6  8  1  0  0  0
  6 16  1  0  0  0
  7 10  2  0  0  0
  7 17  1  0  0  0
  8 11  1  0  0  0
  9 18  1  0  0  0
 11 19  1  0  0  0
M  END
> <i_ionizer_Ion_state_n>
0

> <i_ionizer_Tot_Q>
0

> <s_ionizer_Ion_centers>


> <s_ionizer_Ion_types>


> <s_ionizer_Ion_ctrs_in>


> <r_ionizer_Ionization_penalty>
0.00118438

> <r_ionizer_Ionization_penalty_charging>
0

> <r_ionizer_Ionization_penalty_neutral>
0.00118438

> <i_mmod_Serial_Number-OPLS-2005>
577

> <i_i_glide_lignum>
571

> <r_i_docking_score>
-7.14875

> <r_i_glide_gscore>
-7.14875

> <r_i_glide_lipo>
-0.616431

> <r_i_glide_hbond>
-1.4

> <r_i_glide_metal>
0

> <r_i_glide_eburp>
-2.5

> <r_i_glide_evdw>
-18.2071

> <r_i_glide_ecoul>
-13.3946

> <r_i_glide_erotb>
0.72983

> <r_i_glide_esite>
-0.566124

> <r_i_glide_emodel>
-43.5809

> <r_i_glide_energy>
-31.6016

> <r_i_glide_einternal>
1.09564

> <i_i_glide_confnum>
2

> <i_i_glide_posenum>
540

$$$$
C03164
                    3D
 Structure written by MMmdl.
 26 28  0  0  1  0            999 V2000
    2.3766    1.6529    1.9152 C   0  0  0  0  0  0
    2.0076    3.0419    1.7868 C   0  0  0  0  0  0
    1.8207    0.9131    3.0058 C   0  0  0  0  0  0
    3.2540    0.9328    1.0357 C   0  0  0  0  0  0
    1.0615    3.5982    2.7015 C   0  0  0  0  0  0
    2.5365    3.9359    0.8112 C   0  0  0  0  0  0
    0.9055    1.4954    3.8994 C   0  0  0  0  0  0
    2.1571   -0.4352    3.2362 C   0  0  0  0  0  0
    3.5871   -0.4202    1.2852 C   0  0  0  0  0  0
    3.7904    1.4677   -0.1000 O   0  0  0  0  0  0
    0.5153    2.8270    3.7394 C   0  0  0  0  0  0
    0.6449    4.9432    2.6101 C   0  0  0  0  0  0
    2.1221    5.2784    0.7252 C   0  0  0  0  0  0
    3.0473   -1.0997    2.3857 C   0  0  0  0  0  0
    4.4330   -1.0966    0.4505 O   0  0  0  0  0  0
    1.1687    5.7847    1.6188 C   0  0  0  0  0  0
    3.2931    3.6712    0.0996 H   0  0  0  0  0  0
    0.4888    0.9188    4.7128 H   0  0  0  0  0  0
    1.7307   -0.9712    4.0720 H   0  0  0  0  0  0
    4.0877    0.8132   -0.7104 H   0  0  0  0  0  0
   -0.1956    3.2575    4.4300 H   0  0  0  0  0  0
   -0.0775    5.3404    3.3087 H   0  0  0  0  0  0
    2.5459    5.9248   -0.0293 H   0  0  0  0  0  0
    3.2998   -2.1334    2.5721 H   0  0  0  0  0  0
    4.5080   -0.7026   -0.4045 H   0  0  0  0  0  0
    0.8515    6.8151    1.5534 H   0  0  0  0  0  0
  1  2  1  0  0  0
  1  3  2  0  0  0
  1  4  1  0  0  0
  2  5  2  0  0  0
  2  6  1  0  0  0
  3  7  1  0  0  0
  3  8  1  0  0  0
  4  9  2  0  0  0
  4 10  1  0  0  0
  5 11  1  0  0  0
  5 12  1  0  0  0
  6 13  2  0  0  0
  6 17  1  0  0  0
  7 11  2  0  0  0
  7 18  1  0  0  0
  8 14  2  0  0  0
  8 19  1  0  0  0
  9 15  1  0  0  0
  9 14  1  0  0  0
 10 20  1  0  0  0
 11 21  1  0  0  0
 12 16  2  0  0  0
 12 22  1  0  0  0
 13 16  1  0  0  0
 13 23  1  0  0  0
 14 24  1  0  0  0
 15 25  1  0  0  0
 16 26  1  0  0  0
M  END
> <i_ionizer_Ion_state_n>
0

> <i_ionizer_Tot_Q>
0

> <s_ionizer_Ion_centers>


> <s_ionizer_Ion_types>


> <s_ionizer_Ion_ctrs_in>


> <r_ionizer_Ionization_penalty>
0.00118438

> <r_ionizer_Ionization_penalty_charging>
0

> <r_ionizer_Ionization_penalty_neutral>
0.00118438

> <i_mmod_Serial_Number-OPLS-2005>
525

> <i_i_glide_lignum>
519

> <r_i_docking_score>
-7.13109

> <r_i_glide_gscore>
-7.13109

> <r_i_glide_lipo>
-1.31261

> <r_i_glide_hbond>
-0.49784

> <r_i_glide_metal>
0

> <r_i_glide_eburp>
-2.19519

> <r_i_glide_evdw>
-23.8935

> <r_i_glide_ecoul>
-2.42393

> <r_i_glide_erotb>
0

> <r_i_glide_esite>
-0.971571

> <r_i_glide_emodel>
-34.9084

> <r_i_glide_energy>
-26.3175

> <r_i_glide_einternal>
0.763883

> <i_i_glide_confnum>
1

> <i_i_glide_posenum>
593

$$$$
C00643
                    3D
 Structure written by MMmdl.
 28 29  0  0  1  0            999 V2000
    2.6445    3.0122    2.3843 C   0  0  0  0  0  0
    2.9729    3.7735    1.2210 C   0  0  0  0  0  0
    3.6046    1.9172    2.5116 C   0  0  0  0  0  0
    1.5250    3.4436    3.1354 C   0  0  0  0  0  0
    4.0794    3.1382    0.6993 N   0  0  0  0  0  0
    2.2325    4.9012    0.8246 C   0  0  0  0  0  0
    4.4475    2.0480    1.4594 C   0  0  0  0  0  0
    3.6581    0.8588    3.5814 C   0  0  0  0  0  0
    0.7733    4.5727    2.7486 C   0  0  0  0  0  0
    1.1257    5.3016    1.5950 C   0  0  0  0  0  0
    2.3255    0.3039    4.1381 C   0  0  1  0  0  0
   -0.3000    4.9590    3.4972 O   0  0  0  0  0  0
    1.4415   -0.3244    3.0514 C   0  0  0  0  0  0
    1.7006   -1.4979    2.7024 O   0  0  0  0  0  0
    1.2431    2.8958    4.0226 H   0  0  0  0  0  0
    4.5828    3.4171   -0.1308 H   0  0  0  0  0  0
    2.5097    5.4538   -0.0608 H   0  0  0  0  0  0
    5.2830    1.3954    1.2529 H   0  0  0  0  0  0
    4.2582    0.0348    3.1925 H   0  0  0  0  0  0
    4.2406    1.2815    4.4007 H   0  0  0  0  0  0
    0.5509    6.1667    1.2981 H   0  0  0  0  0  0
    1.7813    1.1172    4.6212 H   0  0  0  0  0  0
   -0.6544    5.7952    3.2366 H   0  0  0  0  0  0
    1.7014   -1.0078    5.5681 H   0  0  0  0  0  0
    3.0676   -1.4796    4.7786 H   0  0  0  0  0  0
    2.5833   -0.6940    5.1892 N   0  3  0  0  0  0
    3.1461   -0.2855    5.9209 H   0  0  0  0  0  0
    0.5030    0.3713    2.6063 O   0  5  0  0  0  0
  1  2  2  0  0  0
  1  3  1  0  0  0
  1  4  1  0  0  0
  2  5  1  0  0  0
  2  6  1  0  0  0
  3  7  2  0  0  0
  3  8  1  0  0  0
  4  9  2  0  0  0
  4 15  1  0  0  0
  5  7  1  0  0  0
  5 16  1  0  0  0
  6 10  2  0  0  0
  6 17  1  0  0  0
  7 18  1  0  0  0
  8 11  1  0  0  0
  8 19  1  0  0  0
  8 20  1  0  0  0
  9 12  1  0  0  0
  9 10  1  0  0  0
 10 21  1  0  0  0
 11 13  1  0  0  0
 11 22  1  0  0  0
 11 26  1  0  0  0
 12 23  1  0  0  0
 13 14  2  0  0  0
 13 28  1  0  0  0
 24 26  1  0  0  0
 25 26  1  0  0  0
 26 27  1  0  0  0
M  CHG  2  26   1  28  -1
M  END
> <i_ionizer_Ion_state_n>
6

> <i_ionizer_Tot_Q>
0

> <s_ionizer_Ion_centers>
26_28

> <s_ionizer_Ion_types>
N5_OM

> <s_ionizer_Ion_ctrs_in>
14_15

> <r_ionizer_Ionization_penalty>
0.00137171

> <r_ionizer_Ionization_penalty_charging>
0.000779521

> <r_ionizer_Ionization_penalty_neutral>
0.00059219

> <s_st_Chirality_1>
11_S_26_13_8_22

> <i_mmod_Serial_Number-OPLS-2005>
306

> <i_i_glide_lignum>
304

> <r_i_docking_score>
-7.11012

> <r_i_glide_gscore>
-7.11012

> <r_i_glide_lipo>
-0.816707

> <r_i_glide_hbond>
-1.28126

> <r_i_glide_metal>
0

> <r_i_glide_eburp>
-2.11947

> <r_i_glide_evdw>
-18.5913

> <r_i_glide_ecoul>
-12.6813

> <r_i_glide_erotb>
0.794054

> <r_i_glide_esite>
-0.931311

> <r_i_glide_emodel>
-60.3777

> <r_i_glide_energy>
-31.2726

> <r_i_glide_einternal>
1.25613

> <i_i_glide_confnum>
1

> <i_i_glide_posenum>
495

$$$$
C05901
                    3D
 Structure written by MMmdl.
 30 31  0  0  1  0            999 V2000
   -1.7310    7.1893    1.3964 C   0  0  0  0  0  0
   -1.0119    7.7921    0.3427 C   0  0  0  0  0  0
   -1.2109    6.0470    2.0374 C   0  0  0  0  0  0
   -2.9299    7.7031    1.8029 O   0  0  0  0  0  0
    0.2217    7.2464   -0.0605 C   0  0  0  0  0  0
   -1.4999    8.8998   -0.2906 O   0  0  0  0  0  0
    0.0255    5.4916    1.6408 C   0  0  0  0  0  0
    0.7374    6.1048    0.5830 C   0  0  0  0  0  0
    0.5192    4.2952    2.3488 C   0  0  0  0  0  0
    1.7783    3.8134    2.3252 C   0  0  0  0  0  0
    2.2719    2.6170    3.0334 C   0  0  0  0  0  0
    1.3661    1.5636    3.2886 C   0  0  0  0  0  0
    3.6125    2.4810    3.4667 C   0  0  0  0  0  0
    1.7857    0.3988    3.9612 C   0  0  0  0  0  0
    4.0344    1.3171    4.1395 C   0  0  0  0  0  0
    3.1211    0.2750    4.3873 C   0  0  0  0  0  0
    0.8998   -0.6110    4.2011 O   0  0  0  0  0  0
    5.3307    1.2028    4.5503 O   0  0  0  0  0  0
   -1.7687    5.5923    2.8433 H   0  0  0  0  0  0
   -3.0797    8.5855    1.5014 H   0  0  0  0  0  0
    0.7793    7.7011   -0.8662 H   0  0  0  0  0  0
   -1.8434    9.5484    0.3037 H   0  0  0  0  0  0
    1.6854    5.7156    0.2463 H   0  0  0  0  0  0
   -0.2264    3.7792    2.9333 H   0  0  0  0  0  0
    2.5238    4.3295    1.7408 H   0  0  0  0  0  0
    0.3385    1.6487    2.9656 H   0  0  0  0  0  0
    4.3371    3.2612    3.2924 H   0  0  0  0  0  0
    3.4409   -0.6189    4.9029 H   0  0  0  0  0  0
    1.2595   -1.3056    4.7310 H   0  0  0  0  0  0
    5.5229    0.3680    4.9491 H   0  0  0  0  0  0
  1  2  1  0  0  0
  1  3  2  0  0  0
  1  4  1  0  0  0
  2  5  2  0  0  0
  2  6  1  0  0  0
  3  7  1  0  0  0
  3 19  1  0  0  0
  4 20  1  0  0  0
  5  8  1  0  0  0
  5 21  1  0  0  0
  6 22  1  0  0  0
  7  9  1  0  0  0
  7  8  2  0  0  0
  8 23  1  0  0  0
  9 10  2  0  0  0
  9 24  1  0  0  0
 10 11  1  0  0  0
 10 25  1  0  0  0
 11 12  1  0  0  0
 11 13  2  0  0  0
 12 14  2  0  0  0
 12 26  1  0  0  0
 13 15  1  0  0  0
 13 27  1  0  0  0
 14 16  1  0  0  0
 14 17  1  0  0  0
 15 18  1  0  0  0
 15 16  2  0  0  0
 16 28  1  0  0  0
 17 29  1  0  0  0
 18 30  1  0  0  0
M  END
> <i_ionizer_Ion_state_n>
0

> <i_ionizer_Tot_Q>
0

> <s_ionizer_Ion_centers>


> <s_ionizer_Ion_types>


> <s_ionizer_Ion_ctrs_in>


> <r_ionizer_Ionization_penalty>
0.00236876

> <r_ionizer_Ionization_penalty_charging>
0

> <r_ionizer_Ionization_penalty_neutral>
0.00236876

> <s_st_EZ_1>
7_9_10_11_E

> <i_mmod_Serial_Number-OPLS-2005>
822

> <i_i_glide_lignum>
811

> <r_i_docking_score>
-7.10368

> <r_i_glide_gscore>
-7.10368

> <r_i_glide_lipo>
-1.322

> <r_i_glide_hbond>
-0.868554

> <r_i_glide_metal>
0

> <r_i_glide_eburp>
-1.93751

> <r_i_glide_evdw>
-31.7147

> <r_i_glide_ecoul>
-8.33642

> <r_i_glide_erotb>
0.666011

> <r_i_glide_esite>
-0.27081

> <r_i_glide_emodel>
-64.4727

> <r_i_glide_energy>
-40.0511

> <r_i_glide_einternal>
3.76396

> <i_i_glide_confnum>
5

> <i_i_glide_posenum>
60

$$$$
C01693
                    3D
 Structure written by MMmdl.
 20 21  0  0  1  0            999 V2000
    3.9906   -0.0120    2.1541 C   0  0  0  0  0  0
    3.3245    0.1713    0.8952 C   0  0  0  0  0  0
    5.3038    0.0999    1.9386 C   0  0  0  0  0  0
    3.2868   -0.3351    3.4579 C   0  0  0  0  0  0
    4.2499    0.4237   -0.0979 N   0  0  0  0  0  0
    1.9886    0.0971    0.7564 C   0  0  0  0  0  0
    5.5938    0.3413    0.4671 C   0  0  2  0  0  0
    1.7658   -0.1324    3.3363 C   0  0  0  0  0  0
    1.1121   -0.1301    1.9264 C   0  0  0  0  0  0
    6.3854   -0.7772   -0.2259 C   0  0  0  0  0  0
    1.0717   -0.0033    4.3442 O   0  0  0  0  0  0
   -0.1025   -0.2989    1.8243 O   0  0  0  0  0  0
    7.6078   -0.5729   -0.3964 O   0  0  0  0  0  0
    6.0823   -0.0082    2.6793 H   0  0  0  0  0  0
    3.4928   -1.3693    3.7342 H   0  0  0  0  0  0
    3.6776    0.3043    4.2498 H   0  0  0  0  0  0
    4.0994    0.1189   -1.0496 H   0  0  0  0  0  0
    1.5248    0.2310   -0.2099 H   0  0  0  0  0  0
    6.1112    1.2927    0.3419 H   0  0  0  0  0  0
    5.7724   -1.8112   -0.5734 O   0  5  0  0  0  0
  1  2  1  0  0  0
  1  3  2  0  0  0
  1  4  1  0  0  0
  2  5  1  0  0  0
  2  6  2  0  0  0
  3  7  1  0  0  0
  3 14  1  0  0  0
  4  8  1  0  0  0
  4 15  1  0  0  0
  4 16  1  0  0  0
  5  7  1  0  0  0
  5 17  1  0  0  0
  6  9  1  0  0  0
  6 18  1  0  0  0
  7 10  1  0  0  0
  7 19  1  0  0  0
  8 11  2  0  0  0
  8  9  1  0  0  0
  9 12  2  0  0  0
 10 13  2  0  0  0
 10 20  1  0  0  0
M  CHG  1  20  -1
M  END
> <i_ionizer_Ion_state_n>
1

> <i_ionizer_Tot_Q>
-1

> <s_ionizer_Ion_centers>
20

> <s_ionizer_Ion_types>
OM

> <s_ionizer_Ion_ctrs_in>
13

> <r_ionizer_Ionization_penalty>
0.00059219

> <r_ionizer_Ionization_penalty_charging>
0.00059219

> <r_ionizer_Ionization_penalty_neutral>
0

> <s_st_Chirality_1>
7_S_5_10_3_19

> <s_st_EZ_1>
2_1_3_7_Z

> <i_mmod_Serial_Number-OPLS-2005>
453

> <i_i_glide_lignum>
449

> <r_i_docking_score>
-7.09646

> <r_i_glide_gscore>
-7.09646

> <r_i_glide_lipo>
-0.61912

> <r_i_glide_hbond>
-0.71612

> <r_i_glide_metal>
0

> <r_i_glide_eburp>
-2.33218

> <r_i_glide_evdw>
-22.5952

> <r_i_glide_ecoul>
-6.57914

> <r_i_glide_erotb>
0

> <r_i_glide_esite>
-0.963511

> <r_i_glide_emodel>
-46.9162

> <r_i_glide_energy>
-29.1744

> <r_i_glide_einternal>
0.00118392

> <i_i_glide_confnum>
1

> <i_i_glide_posenum>
103

$$$$
C05580
                    3D
 Structure written by MMmdl.
 20 20  0  0  1  0            999 V2000
    2.8645    3.2168    3.3597 C   0  0  0  0  0  0
    2.4805    1.8650    3.4967 C   0  0  0  0  0  0
    4.0982    3.6442    3.9000 C   0  0  0  0  0  0
    1.9491    4.2007    2.6359 C   0  0  2  0  0  0
    3.3196    0.9514    4.1641 C   0  0  0  0  0  0
    4.9380    2.7314    4.5669 C   0  0  0  0  0  0
    0.4901    3.9930    3.0916 C   0  0  0  0  0  0
    2.0443    4.0959    1.2271 O   0  0  0  0  0  0
    4.5502    1.3837    4.7002 C   0  0  0  0  0  0
    2.9411   -0.3533    4.2920 O   0  0  0  0  0  0
    0.2865    3.3201    4.1272 O   0  0  0  0  0  0
    5.3665    0.5001    5.3479 O   0  0  0  0  0  0
    1.5411    1.5254    3.0854 H   0  0  0  0  0  0
    4.4040    4.6755    3.7997 H   0  0  0  0  0  0
    2.2331    5.2186    2.9047 H   0  0  0  0  0  0
    5.8791    3.0712    4.9736 H   0  0  0  0  0  0
    2.9378    4.3010    0.9937 H   0  0  0  0  0  0
    3.5815   -0.8491    4.7802 H   0  0  0  0  0  0
    5.0010   -0.3697    5.3996 H   0  0  0  0  0  0
   -0.4060    4.5513    2.4179 O   0  5  0  0  0  0
  1  2  1  0  0  0
  1  3  2  0  0  0
  1  4  1  0  0  0
  2  5  2  0  0  0
  2 13  1  0  0  0
  3  6  1  0  0  0
  3 14  1  0  0  0
  4  7  1  0  0  0
  4  8  1  0  0  0
  4 15  1  0  0  0
  5  9  1  0  0  0
  5 10  1  0  0  0
  6  9  2  0  0  0
  6 16  1  0  0  0
  7 11  2  0  0  0
  7 20  1  0  0  0
  8 17  1  0  0  0
  9 12  1  0  0  0
 10 18  1  0  0  0
 12 19  1  0  0  0
M  CHG  1  20  -1
M  END
> <i_ionizer_Ion_state_n>
2

> <i_ionizer_Tot_Q>
-1

> <s_ionizer_Ion_centers>
20

> <s_ionizer_Ion_types>
OM

> <s_ionizer_Ion_ctrs_in>
11

> <r_ionizer_Ionization_penalty>
0.00177657

> <r_ionizer_Ionization_penalty_charging>
0.00059219

> <r_ionizer_Ionization_penalty_neutral>
0.00118438

> <s_st_Chirality_1>
4_R_8_7_1_15

> <i_mmod_Serial_Number-OPLS-2005>
748

> <i_i_glide_lignum>
739

> <r_i_docking_score>
-7.09436

> <r_i_glide_gscore>
-7.09436

> <r_i_glide_lipo>
-0.653633

> <r_i_glide_hbond>
-1.6

> <r_i_glide_metal>
0

> <r_i_glide_eburp>
-2.40044

> <r_i_glide_evdw>
-18.2432

> <r_i_glide_ecoul>
-11.3892

> <r_i_glide_erotb>
0.539965

> <r_i_glide_esite>
-0.381877

> <r_i_glide_emodel>
-55.8372

> <r_i_glide_energy>
-29.6324

> <r_i_glide_einternal>
2.39448

> <i_i_glide_confnum>
2

> <i_i_glide_posenum>
117

$$$$
C05634
                    3D
 Structure written by MMmdl.
 22 23  0  0  1  0            999 V2000
    3.2380    2.8511    3.3182 C   0  0  0  0  0  0
    4.4968    3.1277    3.9281 C   0  0  0  0  0  0
    2.7812    4.0516    2.6662 C   0  0  0  0  0  0
    2.7236    1.5406    3.4635 C   0  0  0  0  0  0
    4.7641    4.4513    3.6428 N   0  0  0  0  0  0
    5.2097    2.1504    4.6460 C   0  0  0  0  0  0
    3.7414    5.0056    2.8932 C   0  0  0  0  0  0
    1.5070    4.2421    1.8978 C   0  0  0  0  0  0
    3.4295    0.5534    4.1808 C   0  0  0  0  0  0
    4.6719    0.8566    4.7720 C   0  0  0  0  0  0
    0.4841    4.8304    2.8675 C   0  0  0  0  0  0
    2.9040   -0.6996    4.3003 O   0  0  0  0  0  0
   -0.3015    4.0977    3.4645 O   0  0  0  0  0  0
    1.7727    1.2927    3.0155 H   0  0  0  0  0  0
    5.5824    4.9687    3.9304 H   0  0  0  0  0  0
    6.1612    2.3903    5.0968 H   0  0  0  0  0  0
    3.7803    6.0387    2.5792 H   0  0  0  0  0  0
    1.6493    4.9222    1.0578 H   0  0  0  0  0  0
    1.1356    3.2965    1.5024 H   0  0  0  0  0  0
    5.2139    0.1012    5.3219 H   0  0  0  0  0  0
    0.4976    5.9140    2.9909 H   0  0  0  0  0  0
    3.4471   -1.2861    4.8040 H   0  0  0  0  0  0
  1  2  1  0  0  0
  1  3  1  0  0  0
  1  4  2  0  0  0
  2  5  1  0  0  0
  2  6  2  0  0  0
  3  7  2  0  0  0
  3  8  1  0  0  0
  4  9  1  0  0  0
  4 14  1  0  0  0
  5  7  1  0  0  0
  5 15  1  0  0  0
  6 10  1  0  0  0
  6 16  1  0  0  0
  7 17  1  0  0  0
  8 11  1  0  0  0
  8 18  1  0  0  0
  8 19  1  0  0  0
  9 12  1  0  0  0
  9 10  2  0  0  0
 10 20  1  0  0  0
 11 13  2  0  0  0
 11 21  1  0  0  0
 12 22  1  0  0  0
M  END
> <i_ionizer_Ion_state_n>
0

> <i_ionizer_Tot_Q>
0

> <s_ionizer_Ion_centers>


> <s_ionizer_Ion_types>


> <s_ionizer_Ion_ctrs_in>


> <r_ionizer_Ionization_penalty>
0.00059219

> <r_ionizer_Ionization_penalty_charging>
0

> <r_ionizer_Ionization_penalty_neutral>
0.00059219

> <i_mmod_Serial_Number-OPLS-2005>
761

> <i_i_glide_lignum>
752

> <r_i_docking_score>
-7.09159

> <r_i_glide_gscore>
-7.09159

> <r_i_glide_lipo>
-0.836643

> <r_i_glide_hbond>
-0.95

> <r_i_glide_metal>
0

> <r_i_glide_eburp>
-2.46069

> <r_i_glide_evdw>
-21.0653

> <r_i_glide_ecoul>
-8.22298

> <r_i_glide_erotb>
0.580793

> <r_i_glide_esite>
-0.917532

> <r_i_glide_emodel>
-41.3315

> <r_i_glide_energy>
-29.2882

> <r_i_glide_einternal>
0.754479

> <i_i_glide_confnum>
2

> <i_i_glide_posenum>
269

$$$$
C11432
                    3D
 Structure written by MMmdl.
 25 27  0  0  1  0            999 V2000
    3.9091    3.9774    2.2697 C   0  0  0  0  0  0
    4.2521    2.7491    2.8538 C   0  0  0  0  0  0
    1.8779    2.2481    3.2279 C   0  0  0  0  0  0
    3.2506    1.8782    3.3352 C   0  0  0  0  0  0
    3.6151    0.6406    3.9228 C   0  0  0  0  0  0
    2.6231   -0.2321    4.4045 C   0  0  0  0  0  0
    1.2686    0.1216    4.3042 C   0  0  0  0  0  0
    0.8993    1.3476    3.7226 C   0  0  0  0  0  0
    2.5593    4.3551    2.1573 C   0  0  0  0  0  0
    1.5290    3.4981    2.6334 C   0  0  0  0  0  0
    0.1848    3.9329    2.4927 C   0  0  0  0  0  0
   -0.1191    5.1736    1.9004 C   0  0  0  0  0  0
    0.9118    6.0072    1.4357 C   0  0  0  0  0  0
    2.2496    5.5972    1.5646 C   0  0  0  0  0  0
    4.9248    0.2648    4.0364 O   0  0  0  0  0  0
    4.6912    4.6290    1.9077 H   0  0  0  0  0  0
    5.2971    2.4858    2.9265 H   0  0  0  0  0  0
    2.8967   -1.1760    4.8529 H   0  0  0  0  0  0
    0.5079   -0.5497    4.6747 H   0  0  0  0  0  0
   -0.1554    1.5613    3.6747 H   0  0  0  0  0  0
   -0.6494    3.3401    2.8287 H   0  0  0  0  0  0
   -1.1485    5.4858    1.8029 H   0  0  0  0  0  0
    0.6772    6.9587    0.9816 H   0  0  0  0  0  0
    3.0382    6.2424    1.2054 H   0  0  0  0  0  0
    5.0441   -0.5188    4.5506 H   0  0  0  0  0  0
  1  9  1  0  0  0
  1  2  2  0  0  0
  1 16  1  0  0  0
  2  4  1  0  0  0
  2 17  1  0  0  0
  3  8  1  0  0  0
  3 10  1  0  0  0
  3  4  2  0  0  0
  4  5  1  0  0  0
  5  6  2  0  0  0
  5 15  1  0  0  0
  6  7  1  0  0  0
  6 18  1  0  0  0
  7  8  2  0  0  0
  7 19  1  0  0  0
  8 20  1  0  0  0
  9 10  2  0  0  0
  9 14  1  0  0  0
 10 11  1  0  0  0
 11 12  2  0  0  0
 11 21  1  0  0  0
 12 13  1  0  0  0
 12 22  1  0  0  0
 13 14  2  0  0  0
 13 23  1  0  0  0
 14 24  1  0  0  0
 15 25  1  0  0  0
M  END
> <i_ionizer_Ion_state_n>
0

> <i_ionizer_Tot_Q>
0

> <s_ionizer_Ion_centers>


> <s_ionizer_Ion_types>


> <s_ionizer_Ion_ctrs_in>


> <r_ionizer_Ionization_penalty>
0.00059219

> <r_ionizer_Ionization_penalty_charging>
0

> <r_ionizer_Ionization_penalty_neutral>
0.00059219

> <i_mmod_Serial_Number-OPLS-2005>
938

> <i_i_glide_lignum>
921

> <r_i_docking_score>
-7.08624

> <r_i_glide_gscore>
-7.08624

> <r_i_glide_lipo>
-1.31496

> <r_i_glide_hbond>
-0.410672

> <r_i_glide_metal>
0

> <r_i_glide_eburp>
-2.3164

> <r_i_glide_evdw>
-21.4982

> <r_i_glide_ecoul>
-3.48944

> <r_i_glide_erotb>
0

> <r_i_glide_esite>
-0.975398

> <r_i_glide_emodel>
-34.8207

> <r_i_glide_energy>
-24.9877

> <r_i_glide_einternal>
0.0665455

> <i_i_glide_confnum>
1

> <i_i_glide_posenum>
414

$$$$
C05842
                    3D
 Structure written by MMmdl.
 19 19  0  0  1  0            999 V2000
    2.8952    0.8590    3.1382 C   0  0  0  0  0  0
    2.5672    1.8626    2.3005 C   0  0  0  0  0  0
    4.1097    0.1125    2.8423 C   0  0  0  0  0  0
    2.0346    0.5675    4.2870 C   0  0  0  0  0  0
    3.3527    2.1921    1.1795 N   0  0  0  0  0  0
    4.8629    0.4266    1.7694 C   0  0  0  0  0  0
    2.4997   -0.3859    5.1000 N   0  0  0  0  0  0
    0.9649    1.1244    4.5283 O   0  0  0  0  0  0
    4.4980    1.5200    0.8639 C   0  0  0  0  0  0
    2.9043    3.3016    0.3345 C   0  0  0  0  0  0
    5.1798    1.8140   -0.1183 O   0  0  0  0  0  0
    1.6876    2.4777    2.4296 H   0  0  0  0  0  0
    4.4355   -0.7044    3.4685 H   0  0  0  0  0  0
    5.7600   -0.1404    1.5686 H   0  0  0  0  0  0
    1.9642   -0.6453    5.9154 H   0  0  0  0  0  0
    3.3772   -0.8410    4.8997 H   0  0  0  0  0  0
    1.9792    3.7568    0.6897 H   0  0  0  0  0  0
    3.6610    4.0868    0.3011 H   0  0  0  0  0  0
    2.7266    2.9578   -0.6855 H   0  0  0  0  0  0
  1  2  2  0  0  0
  1  3  1  0  0  0
  1  4  1  0  0  0
  2  5  1  0  0  0
  2 12  1  0  0  0
  3  6  2  0  0  0
  3 13  1  0  0  0
  4  7  1  0  0  0
  4  8  2  0  0  0
  5  9  1  0  0  0
  5 10  1  0  0  0
  6  9  1  0  0  0
  6 14  1  0  0  0
  7 15  1  0  0  0
  7 16  1  0  0  0
  9 11  2  0  0  0
 10 17  1  0  0  0
 10 18  1  0  0  0
 10 19  1  0  0  0
M  END
> <i_ionizer_Ion_state_n>
0

> <i_ionizer_Tot_Q>
0

> <s_ionizer_Ion_centers>


> <s_ionizer_Ion_types>


> <s_ionizer_Ion_ctrs_in>


> <r_ionizer_Ionization_penalty>
0

> <r_ionizer_Ionization_penalty_charging>
0

> <r_ionizer_Ionization_penalty_neutral>
0

> <i_mmod_Serial_Number-OPLS-2005>
810

> <i_i_glide_lignum>
801

> <r_i_docking_score>
-7.07159

> <r_i_glide_gscore>
-7.07159

> <r_i_glide_lipo>
-0.512137

> <r_i_glide_hbond>
-0.921844

> <r_i_glide_metal>
0

> <r_i_glide_eburp>
-2.5

> <r_i_glide_evdw>
-17.8137

> <r_i_glide_ecoul>
-9.01791

> <r_i_glide_erotb>
0

> <r_i_glide_esite>
-0.810728

> <r_i_glide_emodel>
-37.8146

> <r_i_glide_energy>
-26.8316

> <r_i_glide_einternal>
0.0571509

> <i_i_glide_confnum>
1

> <i_i_glide_posenum>
129

$$$$
C04805
                    3D
 Structure written by MMmdl.
 54 53  0  0  1  0            999 V2000
    3.6952    5.0484    2.7915 C   0  0  2  0  0  0
    4.3166    4.1338    3.8274 C   0  0  0  0  0  0
    2.1618    5.0830    2.9089 C   0  0  0  0  0  0
    4.0631    4.6115    1.5001 O   0  0  0  0  0  0
    4.2790    2.7931    3.7653 C   0  0  0  0  0  0
    1.4689    5.6959    1.6798 C   0  0  0  0  0  0
    4.8859    1.9402    4.7699 C   0  0  0  0  0  0
   -0.0400    5.9135    1.9095 C   0  0  0  0  0  0
    4.6765    0.6164    4.9013 C   0  0  0  0  0  0
   -0.7187    4.7421    2.6308 C   0  0  0  0  0  0
    3.7692   -0.2578    4.0534 C   0  0  0  0  0  0
   -0.0725    4.1146    3.4991 O   0  0  0  0  0  0
    2.4476   -0.4878    4.7600 C   0  0  0  0  0  0
    1.2496   -0.0089    4.3784 C   0  0  0  0  0  0
    0.9819    0.9023    3.1953 C   0  0  0  0  0  0
    0.5590    0.0884    1.9864 C   0  0  0  0  0  0
    1.2125   -0.0219    0.8145 C   0  0  0  0  0  0
    2.5068    0.6658    0.4145 C   0  0  0  0  0  0
    3.6766   -0.3262    0.3328 C   0  0  0  0  0  0
    5.0247    0.3693    0.0950 C   0  0  0  0  0  0
    6.2072   -0.6087    0.0863 C   0  0  0  0  0  0
    6.1275   -1.6085   -1.0724 C   0  0  0  0  0  0
    4.0892    6.0536    2.9391 H   0  0  0  0  0  0
    4.8160    4.6177    4.6546 H   0  0  0  0  0  0
    1.7788    4.0769    3.0859 H   0  0  0  0  0  0
    1.8896    5.6697    3.7875 H   0  0  0  0  0  0
    4.8676    5.0417    1.2542 H   0  0  0  0  0  0
    3.7731    2.3510    2.9219 H   0  0  0  0  0  0
    1.9434    6.6476    1.4359 H   0  0  0  0  0  0
    1.6195    5.0451    0.8173 H   0  0  0  0  0  0
    5.5660    2.4002    5.4725 H   0  0  0  0  0  0
   -0.2012    6.8162    2.4994 H   0  0  0  0  0  0
   -0.5420    6.0668    0.9536 H   0  0  0  0  0  0
    5.1988    0.0989    5.6930 H   0  0  0  0  0  0
    3.5970    0.1527    3.0612 H   0  0  0  0  0  0
    4.2526   -1.2226    3.8995 H   0  0  0  0  0  0
    2.4969   -1.1002    5.6486 H   0  0  0  0  0  0
    0.3799   -0.2822    4.9582 H   0  0  0  0  0  0
    0.1780    1.5884    3.4621 H   0  0  0  0  0  0
    1.8571    1.5146    2.9918 H   0  0  0  0  0  0
   -0.3681   -0.4549    2.0999 H   0  0  0  0  0  0
    0.7863   -0.6680    0.0607 H   0  0  0  0  0  0
    2.4024    1.1699   -0.5444 H   0  0  0  0  0  0
    2.7273    1.4359    1.1544 H   0  0  0  0  0  0
    3.7252   -0.9046    1.2563 H   0  0  0  0  0  0
    3.4933   -1.0410   -0.4706 H   0  0  0  0  0  0
    4.9945    0.8972   -0.8583 H   0  0  0  0  0  0
    5.1856    1.1249    0.8652 H   0  0  0  0  0  0
    7.1433   -0.0538    0.0164 H   0  0  0  0  0  0
    6.2392   -1.1528    1.0308 H   0  0  0  0  0  0
    6.9673   -2.3030   -1.0482 H   0  0  0  0  0  0
    5.2090   -2.1945   -1.0283 H   0  0  0  0  0  0
    6.1495   -1.0959   -2.0345 H   0  0  0  0  0  0
   -1.8993    4.4990    2.2991 O   0  5  0  0  0  0
  1  2  1  0  0  0
  1  3  1  0  0  0
  1  4  1  0  0  0
  1 23  1  0  0  0
  2  5  2  0  0  0
  2 24  1  0  0  0
  3  6  1  0  0  0
  3 25  1  0  0  0
  3 26  1  0  0  0
  4 27  1  0  0  0
  5  7  1  0  0  0
  5 28  1  0  0  0
  6  8  1  0  0  0
  6 29  1  0  0  0
  6 30  1  0  0  0
  7  9  2  0  0  0
  7 31  1  0  0  0
  8 10  1  0  0  0
  8 32  1  0  0  0
  8 33  1  0  0  0
  9 11  1  0  0  0
  9 34  1  0  0  0
 10 12  2  0  0  0
 10 54  1  0  0  0
 11 13  1  0  0  0
 11 35  1  0  0  0
 11 36  1  0  0  0
 13 14  2  0  0  0
 13 37  1  0  0  0
 14 15  1  0  0  0
 14 38  1  0  0  0
 15 16  1  0  0  0
 15 39  1  0  0  0
 15 40  1  0  0  0
 16 17  2  0  0  0
 16 41  1  0  0  0
 17 18  1  0  0  0
 17 42  1  0  0  0
 18 19  1  0  0  0
 18 43  1  0  0  0
 18 44  1  0  0  0
 19 20  1  0  0  0
 19 45  1  0  0  0
 19 46  1  0  0  0
 20 21  1  0  0  0
 20 47  1  0  0  0
 20 48  1  0  0  0
 21 22  1  0  0  0
 21 49  1  0  0  0
 21 50  1  0  0  0
 22 51  1  0  0  0
 22 52  1  0  0  0
 22 53  1  0  0  0
M  CHG  1  54  -1
M  END
> <i_ionizer_Ion_state_n>
1

> <i_ionizer_Tot_Q>
-1

> <s_ionizer_Ion_centers>
54

> <s_ionizer_Ion_types>
OM

> <s_ionizer_Ion_ctrs_in>
12

> <r_ionizer_Ionization_penalty>
0.00059219

> <r_ionizer_Ionization_penalty_charging>
0.00059219

> <r_ionizer_Ionization_penalty_neutral>
0

> <s_st_Chirality_1>
1_S_4_2_3_23

> <s_st_EZ_1>
1_2_5_7_E

> <s_st_EZ_2>
11_13_14_15_Z

> <s_st_EZ_3>
15_16_17_18_Z

> <i_mmod_Serial_Number-OPLS-2005>
615

> <i_i_glide_lignum>
609

> <r_i_docking_score>
-7.05749

> <r_i_glide_gscore>
-7.05749

> <r_i_glide_lipo>
-1.66658

> <r_i_glide_hbond>
-1.83067

> <r_i_glide_metal>
0

> <r_i_glide_eburp>
-1.76766

> <r_i_glide_evdw>
-32.7336

> <r_i_glide_ecoul>
-6.61417

> <r_i_glide_erotb>
2.50734

> <r_i_glide_esite>
-1.0198

> <r_i_glide_emodel>
-75.5746

> <r_i_glide_energy>
-39.3478

> <r_i_glide_einternal>
11.2356

> <i_i_glide_confnum>
396

> <i_i_glide_posenum>
594

$$$$
C06157
                    3D
 Structure written by MMmdl.
 42 41  0  0  1  0            999 V2000
    3.5391    0.2715    1.9520 C   0  0  2  0  0  0
    2.0631    1.1807    1.3431 S   0  0  0  0  0  0
    4.1528   -0.6808    0.8967 C   0  0  0  0  0  0
    3.2990   -0.4287    3.3073 C   0  0  0  0  0  0
    2.5776    2.9148    1.4954 C   0  0  0  0  0  0
    5.6814   -0.5628    0.7508 C   0  0  0  0  0  0
    3.2649    0.5347    4.5049 C   0  0  0  0  0  0
    2.6123    3.4594    2.9216 C   0  0  0  0  0  0
    2.9006    3.6196    0.5414 O   0  0  0  0  0  0
    6.2086   -1.2306   -0.5267 C   0  0  0  0  0  0
    4.9615    0.8935    5.0301 S   0  0  0  0  0  0
    2.1029    4.9108    2.9715 C   0  0  0  0  0  0
    7.7310   -1.4401   -0.4844 C   0  0  0  0  0  0
    0.6619    5.0568    2.4459 C   0  0  0  0  0  0
    8.4722   -0.1632   -0.0879 C   0  0  0  0  0  0
   -0.3217    4.0787    3.1035 C   0  0  0  0  0  0
    9.5405   -0.3001    0.6999 N   0  0  0  0  0  0
    8.0885    0.9326   -0.4909 O   0  0  0  0  0  0
    0.1000    3.3025    3.9905 O   0  0  0  0  0  0
    4.2851    1.0458    2.1346 H   0  0  0  0  0  0
    3.9159   -1.7108    1.1658 H   0  0  0  0  0  0
    3.6795   -0.5280   -0.0717 H   0  0  0  0  0  0
    2.3818   -1.0151    3.2825 H   0  0  0  0  0  0
    4.1022   -1.1486    3.4700 H   0  0  0  0  0  0
    5.9753    0.4846    0.7234 H   0  0  0  0  0  0
    6.1711   -0.9901    1.6265 H   0  0  0  0  0  0
    2.7703    1.4689    4.2380 H   0  0  0  0  0  0
    2.7232    0.1024    5.3461 H   0  0  0  0  0  0
    1.9943    2.8223    3.5554 H   0  0  0  0  0  0
    3.6297    3.3984    3.3091 H   0  0  0  0  0  0
    5.7009   -2.1834   -0.6833 H   0  0  0  0  0  0
    5.9598   -0.6021   -1.3837 H   0  0  0  0  0  0
    5.2581   -0.3527    5.4100 H   0  0  0  0  0  0
    2.1474    5.2723    3.9999 H   0  0  0  0  0  0
    2.7695    5.5504    2.3895 H   0  0  0  0  0  0
    7.9797   -2.2356    0.2197 H   0  0  0  0  0  0
    8.0912   -1.7684   -1.4599 H   0  0  0  0  0  0
    0.3036    6.0719    2.6199 H   0  0  0  0  0  0
    0.6406    4.8939    1.3679 H   0  0  0  0  0  0
   10.0635    0.5142    0.9841 H   0  0  0  0  0  0
    9.8052   -1.2221    1.0381 H   0  0  0  0  0  0
   -1.5028    4.1274    2.6979 O   0  5  0  0  0  0
  1  2  1  0  0  0
  1  3  1  0  0  0
  1  4  1  0  0  0
  1 20  1  0  0  0
  2  5  1  0  0  0
  3  6  1  0  0  0
  3 21  1  0  0  0
  3 22  1  0  0  0
  4  7  1  0  0  0
  4 23  1  0  0  0
  4 24  1  0  0  0
  5  8  1  0  0  0
  5  9  2  0  0  0
  6 10  1  0  0  0
  6 25  1  0  0  0
  6 26  1  0  0  0
  7 11  1  0  0  0
  7 27  1  0  0  0
  7 28  1  0  0  0
  8 12  1  0  0  0
  8 29  1  0  0  0
  8 30  1  0  0  0
 10 13  1  0  0  0
 10 31  1  0  0  0
 10 32  1  0  0  0
 11 33  1  0  0  0
 12 14  1  0  0  0
 12 34  1  0  0  0
 12 35  1  0  0  0
 13 15  1  0  0  0
 13 36  1  0  0  0
 13 37  1  0  0  0
 14 16  1  0  0  0
 14 38  1  0  0  0
 14 39  1  0  0  0
 15 17  1  0  0  0
 15 18  2  0  0  0
 16 19  2  0  0  0
 16 42  1  0  0  0
 17 40  1  0  0  0
 17 41  1  0  0  0
M  CHG  1  42  -1
M  END
> <i_ionizer_Ion_state_n>
2

> <i_ionizer_Tot_Q>
-1

> <s_ionizer_Ion_centers>
42

> <s_ionizer_Ion_types>
OM

> <s_ionizer_Ion_ctrs_in>
19

> <r_ionizer_Ionization_penalty>
0.00246284

> <r_ionizer_Ionization_penalty_charging>
0.00059219

> <r_ionizer_Ionization_penalty_neutral>
0.00187065

> <s_st_Chirality_1>
1_R_2_4_3_20

> <i_mmod_Serial_Number-OPLS-2005>
861

> <i_i_glide_lignum>
849

> <r_i_docking_score>
-7.05454

> <r_i_glide_gscore>
-7.05454

> <r_i_glide_lipo>
-0.86023

> <r_i_glide_hbond>
-1.85

> <r_i_glide_metal>
0

> <r_i_glide_eburp>
-1.76021

> <r_i_glide_evdw>
-33.3089

> <r_i_glide_ecoul>
-8.05168

> <r_i_glide_erotb>
2.28597

> <r_i_glide_esite>
-1.4002

> <r_i_glide_emodel>
-76.6798

> <r_i_glide_energy>
-41.3606

> <r_i_glide_einternal>
11.1366

> <i_i_glide_confnum>
146

> <i_i_glide_posenum>
904

$$$$
C00584
                    3D
 Structure written by MMmdl.
 56 56  0  0  1  0            999 V2000
    2.6059    0.8796    2.1414 C   0  0  2  0  0  0
    3.7938    1.3723    2.9862 C   0  0  2  0  0  0
    2.2762   -0.4622    2.7977 C   0  0  0  0  0  0
    2.9113    0.8074    0.6288 C   0  0  0  0  0  0
    3.5474    0.8009    4.3930 C   0  0  1  0  0  0
    3.9478    2.8822    2.9685 C   0  0  0  0  0  0
    2.9234   -0.5833    4.1691 C   0  0  0  0  0  0
    1.5673   -1.3359    2.3015 O   0  0  0  0  0  0
    3.0390   -0.6127    0.0992 C   0  0  0  0  0  0
    4.7474    0.7171    5.1349 O   0  0  0  0  0  0
    3.1471    3.7178    2.2827 C   0  0  0  0  0  0
    4.1719   -1.3058   -0.1213 C   0  0  0  0  0  0
    3.2528    5.2351    2.2300 C   0  0  2  0  0  0
    5.5968   -0.8472    0.1318 C   0  0  0  0  0  0
    3.0436    5.7603    0.7983 C   0  0  0  0  0  0
    4.4999    5.6897    2.7214 O   0  0  0  0  0  0
    6.4520   -0.9094   -1.1411 C   0  0  0  0  0  0
    1.9604    6.8475    0.6935 C   0  0  0  0  0  0
    7.9511   -1.0916   -0.8313 C   0  0  0  0  0  0
    0.6390    6.4264    1.3529 C   0  0  0  0  0  0
    8.5649    0.0982   -0.0819 C   0  0  0  0  0  0
   -0.3770    7.5754    1.4246 C   0  0  0  0  0  0
    8.1008    1.2426   -0.2848 O   0  0  0  0  0  0
   -0.7724    8.0988    0.0394 C   0  0  0  0  0  0
    1.7468    1.5318    2.3069 H   0  0  0  0  0  0
    4.7073    0.9266    2.5857 H   0  0  0  0  0  0
    2.0982    1.2794    0.0767 H   0  0  0  0  0  0
    3.7960    1.3980    0.3978 H   0  0  0  0  0  0
    2.8407    1.4313    4.9359 H   0  0  0  0  0  0
    4.7646    3.2751    3.5560 H   0  0  0  0  0  0
    2.1973   -0.8418    4.9403 H   0  0  0  0  0  0
    3.6807   -1.3671    4.1242 H   0  0  0  0  0  0
    2.1004   -1.0996   -0.1218 H   0  0  0  0  0  0
    4.9009   -0.1877    5.3610 H   0  0  0  0  0  0
    2.3380    3.2963    1.7039 H   0  0  0  0  0  0
    4.0820   -2.3054   -0.5209 H   0  0  0  0  0  0
    2.4720    5.6314    2.8801 H   0  0  0  0  0  0
    5.6237    0.1566    0.5511 H   0  0  0  0  0  0
    6.0233   -1.4988    0.8949 H   0  0  0  0  0  0
    3.9880    6.1382    0.4033 H   0  0  0  0  0  0
    2.7586    4.9274    0.1539 H   0  0  0  0  0  0
    5.1195    5.6960    2.0079 H   0  0  0  0  0  0
    6.1030   -1.7306   -1.7693 H   0  0  0  0  0  0
    6.3036    0.0067   -1.7152 H   0  0  0  0  0  0
    2.3213    7.7648    1.1606 H   0  0  0  0  0  0
    1.7768    7.0859   -0.3546 H   0  0  0  0  0  0
    8.1000   -1.9888   -0.2297 H   0  0  0  0  0  0
    8.5073   -1.2367   -1.7580 H   0  0  0  0  0  0
    0.2058    5.5939    0.7968 H   0  0  0  0  0  0
    0.8373    6.0552    2.3592 H   0  0  0  0  0  0
   -1.2720    7.2406    1.9503 H   0  0  0  0  0  0
    0.0377    8.3950    2.0126 H   0  0  0  0  0  0
   -1.4933    8.9124    0.1228 H   0  0  0  0  0  0
    0.0955    8.4777   -0.5011 H   0  0  0  0  0  0
   -1.2268    7.3125   -0.5640 H   0  0  0  0  0  0
    9.5070   -0.1668    0.6961 O   0  5  0  0  0  0
  1  2  1  0  0  0
  1  3  1  0  0  0
  1  4  1  0  0  0
  1 25  1  0  0  0
  2  5  1  0  0  0
  2  6  1  0  0  0
  2 26  1  0  0  0
  3  7  1  0  0  0
  3  8  2  0  0  0
  4  9  1  0  0  0
  4 27  1  0  0  0
  4 28  1  0  0  0
  5 10  1  0  0  0
  5  7  1  0  0  0
  5 29  1  0  0  0
  6 11  2  0  0  0
  6 30  1  0  0  0
  7 31  1  0  0  0
  7 32  1  0  0  0
  9 12  2  0  0  0
  9 33  1  0  0  0
 10 34  1  0  0  0
 11 13  1  0  0  0
 11 35  1  0  0  0
 12 14  1  0  0  0
 12 36  1  0  0  0
 13 15  1  0  0  0
 13 16  1  0  0  0
 13 37  1  0  0  0
 14 17  1  0  0  0
 14 38  1  0  0  0
 14 39  1  0  0  0
 15 18  1  0  0  0
 15 40  1  0  0  0
 15 41  1  0  0  0
 16 42  1  0  0  0
 17 19  1  0  0  0
 17 43  1  0  0  0
 17 44  1  0  0  0
 18 20  1  0  0  0
 18 45  1  0  0  0
 18 46  1  0  0  0
 19 21  1  0  0  0
 19 47  1  0  0  0
 19 48  1  0  0  0
 20 22  1  0  0  0
 20 49  1  0  0  0
 20 50  1  0  0  0
 21 23  2  0  0  0
 21 56  1  0  0  0
 22 24  1  0  0  0
 22 51  1  0  0  0
 22 52  1  0  0  0
 24 53  1  0  0  0
 24 54  1  0  0  0
 24 55  1  0  0  0
M  CHG  1  56  -1
M  END
> <i_ionizer_Ion_state_n>
1

> <i_ionizer_Tot_Q>
-1

> <s_ionizer_Ion_centers>
56

> <s_ionizer_Ion_types>
OM

> <s_ionizer_Ion_ctrs_in>
23

> <r_ionizer_Ionization_penalty>
0.00059219

> <r_ionizer_Ionization_penalty_charging>
0.00059219

> <r_ionizer_Ionization_penalty_neutral>
0

> <s_st_Chirality_1>
1_R_3_2_4_25

> <s_st_Chirality_2>
2_R_5_1_6_26

> <s_st_Chirality_3>
5_R_10_2_7_29

> <s_st_Chirality_4>
13_S_16_11_15_37

> <s_st_EZ_1>
2_6_11_13_E

> <s_st_EZ_2>
4_9_12_14_Z

> <i_mmod_Serial_Number-OPLS-2005>
288

> <i_i_glide_lignum>
286

> <r_i_docking_score>
-7.05336

> <r_i_glide_gscore>
-7.05336

> <r_i_glide_lipo>
-1.64107

> <r_i_glide_hbond>
-1.22454

> <r_i_glide_metal>
0

> <r_i_glide_eburp>
-1.12525

> <r_i_glide_evdw>
-27.7649

> <r_i_glide_ecoul>
-12.9672

> <r_i_glide_erotb>
1.7646

> <r_i_glide_esite>
-1.3092

> <r_i_glide_emodel>
-63.7104

> <r_i_glide_energy>
-40.7321

> <r_i_glide_einternal>
20.6632

> <i_i_glide_confnum>
210

> <i_i_glide_posenum>
938

$$$$
C00645
                    3D
 Structure written by MMmdl.
 30 30  0  0  1  0            999 V2000
    3.2624    0.9050    2.5009 C   0  0  1  0  0  0
    3.8825    1.6143    1.2780 C   0  0  2  0  0  0
    2.6485   -0.4055    1.9694 C   0  0  1  0  0  0
    4.2654    0.5995    3.5254 N   0  0  0  0  0  0
    4.9245    0.7093    0.5932 C   0  0  1  0  0  0
    4.4680    2.8426    1.6645 O   0  0  0  0  0  0
    3.6806   -1.1982    1.4643 O   0  0  0  0  0  0
    1.9342   -1.0639    2.9893 O   0  0  0  0  0  0
    4.7416    1.4622    4.4344 C   0  0  0  0  0  0
    4.3038   -0.6793    0.2866 C   0  0  2  0  0  0
    5.3012    1.3256   -0.6249 O   0  0  0  0  0  0
    5.6804    0.8799    5.4847 C   0  0  0  0  0  0
    4.4605    2.6597    4.4542 O   0  0  0  0  0  0
    5.3610   -1.7116   -0.1464 C   0  0  0  0  0  0
    6.0987   -1.2199   -1.2456 O   0  0  0  0  0  0
    2.4543    1.5130    2.9126 H   0  0  0  0  0  0
    3.0860    1.8476    0.5691 H   0  0  0  0  0  0
    1.9249   -0.2098    1.1756 H   0  0  0  0  0  0
    4.5960   -0.3536    3.5568 H   0  0  0  0  0  0
    5.8050    0.5964    1.2277 H   0  0  0  0  0  0
    3.7793    3.4023    1.9909 H   0  0  0  0  0  0
    2.4992   -1.1284    3.7439 H   0  0  0  0  0  0
    3.5522   -0.5692   -0.4985 H   0  0  0  0  0  0
    5.1653    0.7130   -1.3315 H   0  0  0  0  0  0
    6.0108    1.6526    6.1795 H   0  0  0  0  0  0
    5.1761    0.1000    6.0559 H   0  0  0  0  0  0
    6.5617    0.4482    5.0098 H   0  0  0  0  0  0
    6.0723   -1.8973    0.6585 H   0  0  0  0  0  0
    4.9009   -2.6689   -0.3941 H   0  0  0  0  0  0
    5.4941   -0.9586   -1.9235 H   0  0  0  0  0  0
  1  2  1  0  0  0
  1  3  1  0  0  0
  1  4  1  0  0  0
  1 16  1  0  0  0
  2  5  1  0  0  0
  2  6  1  0  0  0
  2 17  1  0  0  0
  3  7  1  0  0  0
  3  8  1  0  0  0
  3 18  1  0  0  0
  4  9  1  0  0  0
  4 19  1  0  0  0
  5 10  1  0  0  0
  5 11  1  0  0  0
  5 20  1  0  0  0
  6 21  1  0  0  0
  7 10  1  0  0  0
  8 22  1  0  0  0
  9 12  1  0  0  0
  9 13  2  0  0  0
 10 14  1  0  0  0
 10 23  1  0  0  0
 11 24  1  0  0  0
 12 25  1  0  0  0
 12 26  1  0  0  0
 12 27  1  0  0  0
 14 15  1  0  0  0
 14 28  1  0  0  0
 14 29  1  0  0  0
 15 30  1  0  0  0
M  END
> <i_ionizer_Ion_state_n>
0

> <i_ionizer_Tot_Q>
0

> <s_ionizer_Ion_centers>


> <s_ionizer_Ion_types>


> <s_ionizer_Ion_ctrs_in>


> <r_ionizer_Ionization_penalty>
0

> <r_ionizer_Ionization_penalty_charging>
0

> <r_ionizer_Ionization_penalty_neutral>
0

> <s_st_Chirality_1>
1_S_4_3_2_16

> <s_st_Chirality_2>
2_R_6_5_1_17

> <s_st_Chirality_3>
5_S_11_10_2_20

> <s_st_Chirality_4>
10_R_7_5_14_23

> <s_st_Chirality_5>
3_R_7_8_1_18

> <i_mmod_Serial_Number-OPLS-2005>
307

> <i_i_glide_lignum>
305

> <r_i_docking_score>
-7.04618

> <r_i_glide_gscore>
-7.04618

> <r_i_glide_lipo>
-0.606712

> <r_i_glide_hbond>
-1.27862

> <r_i_glide_metal>
0

> <r_i_glide_eburp>
-2.11203

> <r_i_glide_evdw>
-22.2192

> <r_i_glide_ecoul>
-13.6669

> <r_i_glide_erotb>
0.788112

> <r_i_glide_esite>
-0.692708

> <r_i_glide_emodel>
-49.4227

> <r_i_glide_energy>
-35.8861

> <r_i_glide_einternal>
3.6025

> <i_i_glide_confnum>
1

> <i_i_glide_posenum>
445

$$$$
C05588
                    3D
 Structure written by MMmdl.
 30 30  0  0  1  0            999 V2000
    1.5936    1.2034    2.4240 C   0  0  0  0  0  0
    1.1841    2.4728    2.8827 C   0  0  0  0  0  0
    1.0139   -0.0547    3.0541 C   0  0  2  0  0  0
    2.5516    1.1187    1.3920 C   0  0  0  0  0  0
    1.7045    3.6543    2.3160 C   0  0  0  0  0  0
    2.1286   -1.0714    3.3661 C   0  0  0  0  0  0
    0.0453   -0.6600    2.2173 O   0  0  0  0  0  0
    3.0933    2.2902    0.8320 C   0  0  0  0  0  0
    2.6819    3.5574    1.2909 C   0  0  0  0  0  0
    1.2494    4.8467    2.8301 O   0  0  0  0  0  0
    3.2659    4.6658    0.7472 O   0  0  0  0  0  0
    0.7999    5.8135    1.8909 C   0  0  0  0  0  0
    3.8514    0.4059    4.3507 C   0  0  0  0  0  0
    0.4542    2.5493    3.6754 H   0  0  0  0  0  0
    0.5100    0.2291    3.9794 H   0  0  0  0  0  0
    2.8812    0.1551    1.0314 H   0  0  0  0  0  0
    1.7071   -2.0696    3.4966 H   0  0  0  0  0  0
    2.8167   -1.1257    2.5210 H   0  0  0  0  0  0
   -0.2927   -1.4352    2.6379 H   0  0  0  0  0  0
    3.8361    2.2104    0.0517 H   0  0  0  0  0  0
    3.8391    4.4682    0.0226 H   0  0  0  0  0  0
    0.0206    6.4226    2.3487 H   0  0  0  0  0  0
    1.6092    6.4840    1.6018 H   0  0  0  0  0  0
    0.3780    5.3568    0.9939 H   0  0  0  0  0  0
    4.3888    0.6254    5.2734 H   0  0  0  0  0  0
    4.5822    0.1425    3.5852 H   0  0  0  0  0  0
    3.3297    1.3107    4.0367 H   0  0  0  0  0  0
    2.9000   -0.6998    4.5702 N   0  3  0  0  0  0
    2.2547   -0.4283    5.2985 H   0  0  0  0  0  0
    3.4192   -1.5093    4.8791 H   0  0  0  0  0  0
  1  2  1  0  0  0
  1  3  1  0  0  0
  1  4  2  0  0  0
  2  5  2  0  0  0
  2 14  1  0  0  0
  3  6  1  0  0  0
  3  7  1  0  0  0
  3 15  1  0  0  0
  4  8  1  0  0  0
  4 16  1  0  0  0
  5  9  1  0  0  0
  5 10  1  0  0  0
  6 17  1  0  0  0
  6 18  1  0  0  0
  6 28  1  0  0  0
  7 19  1  0  0  0
  8  9  2  0  0  0
  8 20  1  0  0  0
  9 11  1  0  0  0
 10 12  1  0  0  0
 11 21  1  0  0  0
 12 22  1  0  0  0
 12 23  1  0  0  0
 12 24  1  0  0  0
 13 25  1  0  0  0
 13 26  1  0  0  0
 13 27  1  0  0  0
 13 28  1  0  0  0
 28 29  1  0  0  0
 28 30  1  0  0  0
M  CHG  1  28   1
M  END
> <i_ionizer_Ion_state_n>
1

> <i_ionizer_Tot_Q>
1

> <s_ionizer_Ion_centers>
28

> <s_ionizer_Ion_types>
N5

> <s_ionizer_Ion_ctrs_in>
11

> <r_ionizer_Ionization_penalty>
0.000651435

> <r_ionizer_Ionization_penalty_charging>
5.92456e-05

> <r_ionizer_Ionization_penalty_neutral>
0.00059219

> <s_st_Chirality_1>
3_R_7_6_1_15

> <i_mmod_Serial_Number-OPLS-2005>
755

> <i_i_glide_lignum>
746

> <r_i_docking_score>
-7.04604

> <r_i_glide_gscore>
-7.04604

> <r_i_glide_lipo>
-0.889365

> <r_i_glide_hbond>
-1.71277

> <r_i_glide_metal>
0

> <r_i_glide_eburp>
-2.28603

> <r_i_glide_evdw>
-18.9578

> <r_i_glide_ecoul>
-9.15864

> <r_i_glide_erotb>
0.947145

> <r_i_glide_esite>
-0.672529

> <r_i_glide_emodel>
-48.3606

> <r_i_glide_energy>
-28.1164

> <r_i_glide_einternal>
3.32818

> <i_i_glide_confnum>
1

> <i_i_glide_posenum>
217

$$$$
C04376
                    3D
 Structure written by MMmdl.
 33 33  0  0  1  0            999 V2000
    3.1874    0.3540    1.9503 C   0  0  2  0  0  0
    1.8157    0.2243    1.9241 O   0  0  0  0  0  0
    3.5577    0.9006    3.3239 C   0  0  1  0  0  0
    3.7437    1.2113    0.9249 N   0  0  0  0  0  0
    1.1999    0.5939    3.1734 C   0  0  1  0  0  0
    2.3606    0.5472    4.1785 C   0  0  1  0  0  0
    4.7501    0.3232    3.8191 O   0  0  0  0  0  0
    4.9260    0.9702    0.3372 C   0  0  0  0  0  0
    0.4206    1.9251    3.2576 C   0  0  0  0  0  0
    2.4880   -0.7061    4.8246 O   0  0  0  0  0  0
    5.6421   -0.3092    0.7807 C   0  0  0  0  0  0
    5.4212    1.7029   -0.5209 O   0  0  0  0  0  0
    1.2011    3.0587    2.9079 O   0  0  0  0  0  0
    6.5668   -0.7940   -0.2382 N   0  0  0  0  0  0
    0.4028    4.6632    2.9927 P   0  0  0  0  0  0
    7.8893   -0.5935   -0.2201 C   0  0  0  0  0  0
   -1.0914    4.2720    3.0303 O   0  0  0  0  0  0
    8.4563    0.0487    0.6602 O   0  0  0  0  0  0
    3.5704   -0.6577    1.8019 H   0  0  0  0  0  0
    3.7065    1.9810    3.2875 H   0  0  0  0  0  0
    3.1288    1.9063    0.5269 H   0  0  0  0  0  0
    0.5234   -0.2351    3.3862 H   0  0  0  0  0  0
    2.2163    1.3090    4.9441 H   0  0  0  0  0  0
    4.5335   -0.5503    4.1132 H   0  0  0  0  0  0
   -0.5142    1.8913    2.6982 H   0  0  0  0  0  0
    0.1284    2.0891    4.2950 H   0  0  0  0  0  0
    3.3751   -0.7528    5.1761 H   0  0  0  0  0  0
    6.1561   -0.1300    1.7274 H   0  0  0  0  0  0
    4.8947   -1.0808    0.9670 H   0  0  0  0  0  0
    6.1661   -1.2678   -1.0348 H   0  0  0  0  0  0
    8.3922   -1.0607   -1.0811 H   0  0  0  0  0  0
    0.9777    5.2590    4.2974 O   0  5  0  0  0  0
    0.8926    5.3184    1.6834 O   0  5  0  0  0  0
  1  2  1  0  0  0
  1  3  1  0  0  0
  1  4  1  0  0  0
  1 19  1  0  0  0
  2  5  1  0  0  0
  3  6  1  0  0  0
  3  7  1  0  0  0
  3 20  1  0  0  0
  4  8  1  0  0  0
  4 21  1  0  0  0
  5  9  1  0  0  0
  5  6  1  0  0  0
  5 22  1  0  0  0
  6 10  1  0  0  0
  6 23  1  0  0  0
  7 24  1  0  0  0
  8 11  1  0  0  0
  8 12  2  0  0  0
  9 13  1  0  0  0
  9 25  1  0  0  0
  9 26  1  0  0  0
 10 27  1  0  0  0
 11 14  1  0  0  0
 11 28  1  0  0  0
 11 29  1  0  0  0
 13 15  1  0  0  0
 14 16  1  0  0  0
 14 30  1  0  0  0
 15 17  2  0  0  0
 15 32  1  0  0  0
 15 33  1  0  0  0
 16 18  2  0  0  0
 16 31  1  0  0  0
M  CHG  2  32  -1  33  -1
M  END
> <i_ionizer_Ion_state_n>
3

> <i_ionizer_Tot_Q>
-2

> <s_ionizer_Ion_centers>
32_33

> <s_ionizer_Ion_types>
OM_OM

> <s_ionizer_Ion_ctrs_in>
17_18

> <r_ionizer_Ionization_penalty>
1.49178e-05

> <r_ionizer_Ionization_penalty_charging>
1.49178e-05

> <r_ionizer_Ionization_penalty_neutral>
0

> <s_st_Chirality_1>
1_R_2_4_3_19

> <s_st_Chirality_2>
5_R_2_6_9_22

> <s_st_Chirality_3>
3_R_7_1_6_20

> <s_st_Chirality_4>
6_R_10_3_5_23

> <i_mmod_Serial_Number-OPLS-2005>
592

> <i_i_glide_lignum>
586

> <r_i_docking_score>
-7.03146

> <r_i_glide_gscore>
-7.03146

> <r_i_glide_lipo>
-0.481644

> <r_i_glide_hbond>
-1.8655

> <r_i_glide_metal>
0

> <r_i_glide_eburp>
-1.42292

> <r_i_glide_evdw>
-32.103

> <r_i_glide_ecoul>
-11.3903

> <r_i_glide_erotb>
1.30566

> <r_i_glide_esite>
-0.859785

> <r_i_glide_emodel>
-87.5049

> <r_i_glide_energy>
-43.4933

> <r_i_glide_einternal>
10.6625

> <i_i_glide_confnum>
173

> <i_i_glide_posenum>
249

$$$$
C00673
                    3D
 Structure written by MMmdl.
 22 22  0  0  1  0            999 V2000
   -0.0162    4.2299    2.8448 P   0  0  0  0  0  0
    0.5386    2.5899    2.3774 O   0  0  0  0  0  0
    0.6956    5.1370    1.8169 O   0  0  0  0  0  0
    1.8395    2.2316    2.8148 C   0  0  0  0  0  0
    2.1854    0.7897    2.4026 C   0  0  2  0  0  0
    3.3965    0.2653    3.1888 C   0  0  2  0  0  0
    2.5446    0.5785    1.0191 O   0  0  0  0  0  0
    4.5413    0.4829    2.2244 C   0  0  0  0  0  0
    3.2503   -1.0976    3.5338 O   0  0  0  0  0  0
    3.8879    0.3268    0.8563 C   0  0  2  0  0  0
    4.5312    1.1422   -0.0996 O   0  0  0  0  0  0
    1.8993    2.3316    3.8994 H   0  0  0  0  0  0
    2.5621    2.9338    2.3993 H   0  0  0  0  0  0
    1.3441    0.1201    2.5797 H   0  0  0  0  0  0
    3.5458    0.8584    4.0924 H   0  0  0  0  0  0
    5.0226    1.4531    2.3535 H   0  0  0  0  0  0
    5.2808   -0.3080    2.3611 H   0  0  0  0  0  0
    3.9231   -1.3253    4.1564 H   0  0  0  0  0  0
    3.9544   -0.7045    0.5086 H   0  0  0  0  0  0
    4.3815    0.7657   -0.9530 H   0  0  0  0  0  0
   -1.5474    4.1000    2.6831 O   0  5  0  0  0  0
    0.4999    4.3270    4.2974 O   0  5  0  0  0  0
  1  2  1  0  0  0
  1  3  2  0  0  0
  1 21  1  0  0  0
  1 22  1  0  0  0
  2  4  1  0  0  0
  4  5  1  0  0  0
  4 12  1  0  0  0
  4 13  1  0  0  0
  5  6  1  0  0  0
  5  7  1  0  0  0
  5 14  1  0  0  0
  6  8  1  0  0  0
  6  9  1  0  0  0
  6 15  1  0  0  0
  7 10  1  0  0  0
  8 10  1  0  0  0
  8 16  1  0  0  0
  8 17  1  0  0  0
  9 18  1  0  0  0
 10 11  1  0  0  0
 10 19  1  0  0  0
 11 20  1  0  0  0
M  CHG  2  21  -1  22  -1
M  END
> <i_ionizer_Ion_state_n>
3

> <i_ionizer_Tot_Q>
-2

> <s_ionizer_Ion_centers>
21_22

> <s_ionizer_Ion_types>
OM_OM

> <s_ionizer_Ion_ctrs_in>
3_4

> <r_ionizer_Ionization_penalty>
1.49178e-05

> <r_ionizer_Ionization_penalty_charging>
1.49178e-05

> <r_ionizer_Ionization_penalty_neutral>
0

> <s_st_Chirality_1>
5_R_7_6_4_14

> <s_st_Chirality_2>
6_S_9_5_8_15

> <s_st_Chirality_3>
10_R_7_11_8_19

> <i_mmod_Serial_Number-OPLS-2005>
317

> <i_i_glide_lignum>
315

> <r_i_docking_score>
-7.02639

> <r_i_glide_gscore>
-7.02639

> <r_i_glide_lipo>
-0.35267

> <r_i_glide_hbond>
-2.22996

> <r_i_glide_metal>
0

> <r_i_glide_eburp>
-2.58108

> <r_i_glide_evdw>
-14.7034

> <r_i_glide_ecoul>
-12.2122

> <r_i_glide_erotb>
0.845987

> <r_i_glide_esite>
-0.311166

> <r_i_glide_emodel>
-61.4962

> <r_i_glide_energy>
-26.9156

> <r_i_glide_einternal>
2.66687

> <i_i_glide_confnum>
10

> <i_i_glide_posenum>
362

$$$$
C06213
                    3D
 Structure written by MMmdl.
 28 29  0  0  1  0            999 V2000
    3.4903    1.0700    3.7953 C   0  0  0  0  0  0
    2.8136    2.2778    3.4529 C   0  0  0  0  0  0
    4.8035    1.4131    4.2630 C   0  0  0  0  0  0
    2.7853   -0.1446    3.6180 C   0  0  0  0  0  0
    3.7012    3.3108    3.7120 N   0  0  0  0  0  0
    1.4954    2.2718    2.9569 C   0  0  0  0  0  0
    4.8884    2.7796    4.1971 C   0  0  0  0  0  0
    5.8764    0.4774    4.7299 C   0  0  0  0  0  0
    1.4662   -0.1574    3.1220 C   0  0  0  0  0  0
    3.4392    4.7216    3.5114 C   0  0  0  0  0  0
    0.8206    1.0488    2.7912 C   0  0  0  0  0  0
    5.9216    0.3711    6.2604 C   0  0  0  0  0  0
    3.2657   -1.0788    3.8678 H   0  0  0  0  0  0
    1.0047    3.2002    2.7049 H   0  0  0  0  0  0
    5.7124    3.4270    4.4605 H   0  0  0  0  0  0
    5.7183   -0.5121    4.2986 H   0  0  0  0  0  0
    6.8442    0.8157    4.3574 H   0  0  0  0  0  0
    0.9476   -1.0966    2.9953 H   0  0  0  0  0  0
    3.2122    4.9072    2.4613 H   0  0  0  0  0  0
    2.5879    5.0270    4.1203 H   0  0  0  0  0  0
    4.3088    5.3149    3.7959 H   0  0  0  0  0  0
   -0.1907    1.0353    2.4116 H   0  0  0  0  0  0
    6.1796    1.3351    6.7006 H   0  0  0  0  0  0
    4.9418    0.0916    6.6497 H   0  0  0  0  0  0
    6.9148   -0.6751    7.7102 H   0  0  0  0  0  0
    6.6644   -1.5342    6.3258 H   0  0  0  0  0  0
    6.9089   -0.6288    6.7011 N   0  3  0  0  0  0
    7.8271   -0.3658    6.3725 H   0  0  0  0  0  0
  1  2  1  0  0  0
  1  3  1  0  0  0
  1  4  2  0  0  0
  2  5  1  0  0  0
  2  6  2  0  0  0
  3  7  2  0  0  0
  3  8  1  0  0  0
  4  9  1  0  0  0
  4 13  1  0  0  0
  5 10  1  0  0  0
  5  7  1  0  0  0
  6 11  1  0  0  0
  6 14  1  0  0  0
  7 15  1  0  0  0
  8 12  1  0  0  0
  8 16  1  0  0  0
  8 17  1  0  0  0
  9 11  2  0  0  0
  9 18  1  0  0  0
 10 19  1  0  0  0
 10 20  1  0  0  0
 10 21  1  0  0  0
 11 22  1  0  0  0
 12 23  1  0  0  0
 12 24  1  0  0  0
 12 27  1  0  0  0
 25 27  1  0  0  0
 26 27  1  0  0  0
 27 28  1  0  0  0
M  CHG  1  27   1
M  END
> <i_ionizer_Ion_state_n>
1

> <i_ionizer_Tot_Q>
1

> <s_ionizer_Ion_centers>
27

> <s_ionizer_Ion_types>
N5

> <s_ionizer_Ion_ctrs_in>
13

> <r_ionizer_Ionization_penalty>
0.000187331

> <r_ionizer_Ionization_penalty_charging>
0.000187331

> <r_ionizer_Ionization_penalty_neutral>
0

> <i_mmod_Serial_Number-OPLS-2005>
870

> <i_i_glide_lignum>
858

> <r_i_docking_score>
-7.02112

> <r_i_glide_gscore>
-7.02112

> <r_i_glide_lipo>
-1.11148

> <r_i_glide_hbond>
-0.767054

> <r_i_glide_metal>
0

> <r_i_glide_eburp>
-2.46018

> <r_i_glide_evdw>
-21.7117

> <r_i_glide_ecoul>
-7.2327

> <r_i_glide_erotb>
0.58043

> <r_i_glide_esite>
-0.802627

> <r_i_glide_emodel>
-48.8473

> <r_i_glide_energy>
-28.9444

> <r_i_glide_einternal>
0.463921

> <i_i_glide_confnum>
2

> <i_i_glide_posenum>
47

$$$$
C00140
                    3D
 Structure written by MMmdl.
 30 30  0  0  1  0            999 V2000
    2.7894    1.2077    2.2718 C   0  0  2  0  0  0
    3.6827    1.7610    1.1391 C   0  0  2  0  0  0
    2.2290   -0.1715    1.8435 C   0  0  1  0  0  0
    1.6709    2.1300    2.4749 N   0  0  0  0  0  0
    4.7059    0.7167    0.6568 C   0  0  1  0  0  0
    4.4149    2.8619    1.6437 O   0  0  0  0  0  0
    3.2886   -1.0090    1.5058 O   0  0  0  0  0  0
    1.4937   -0.7394    2.9026 O   0  0  0  0  0  0
    0.9281    2.2188    3.5879 C   0  0  0  0  0  0
    4.0061   -0.6208    0.3406 C   0  0  2  0  0  0
    5.3130    1.2164   -0.5214 O   0  0  0  0  0  0
    1.1591    1.1369    4.6367 C   0  0  0  0  0  0
    0.0991    3.1051    3.7897 O   0  0  0  0  0  0
    5.0001   -1.7575    0.0366 C   0  0  0  0  0  0
    5.7007   -1.4810   -1.1581 O   0  0  0  0  0  0
    3.3821    1.0640    3.1781 H   0  0  0  0  0  0
    3.0640    2.0868    0.3006 H   0  0  0  0  0  0
    1.5490   -0.0878    0.9934 H   0  0  0  0  0  0
    1.4526    2.7545    1.7129 H   0  0  0  0  0  0
    5.4693    0.5566    1.4204 H   0  0  0  0  0  0
    3.7978    3.5434    1.8653 H   0  0  0  0  0  0
    2.0321   -0.7087    3.6784 H   0  0  0  0  0  0
    3.3214   -0.4899   -0.5004 H   0  0  0  0  0  0
    5.1568    0.6070   -1.2266 H   0  0  0  0  0  0
    0.5108    1.2901    5.5000 H   0  0  0  0  0  0
    0.9466    0.1517    4.2210 H   0  0  0  0  0  0
    2.1939    1.1538    4.9798 H   0  0  0  0  0  0
    5.7437   -1.8459    0.8286 H   0  0  0  0  0  0
    4.4920   -2.7199   -0.0345 H   0  0  0  0  0  0
    5.0889   -1.1501   -1.7980 H   0  0  0  0  0  0
  1  2  1  0  0  0
  1  3  1  0  0  0
  1  4  1  0  0  0
  1 16  1  0  0  0
  2  5  1  0  0  0
  2  6  1  0  0  0
  2 17  1  0  0  0
  3  7  1  0  0  0
  3  8  1  0  0  0
  3 18  1  0  0  0
  4  9  1  0  0  0
  4 19  1  0  0  0
  5 10  1  0  0  0
  5 11  1  0  0  0
  5 20  1  0  0  0
  6 21  1  0  0  0
  7 10  1  0  0  0
  8 22  1  0  0  0
  9 12  1  0  0  0
  9 13  2  0  0  0
 10 14  1  0  0  0
 10 23  1  0  0  0
 11 24  1  0  0  0
 12 25  1  0  0  0
 12 26  1  0  0  0
 12 27  1  0  0  0
 14 15  1  0  0  0
 14 28  1  0  0  0
 14 29  1  0  0  0
 15 30  1  0  0  0
M  END
> <i_ionizer_Ion_state_n>
0

> <i_ionizer_Tot_Q>
0

> <s_ionizer_Ion_centers>


> <s_ionizer_Ion_types>


> <s_ionizer_Ion_ctrs_in>


> <r_ionizer_Ionization_penalty>
0

> <r_ionizer_Ionization_penalty_charging>
0

> <r_ionizer_Ionization_penalty_neutral>
0

> <s_st_Chirality_1>
1_R_4_3_2_16

> <s_st_Chirality_2>
2_R_6_5_1_17

> <s_st_Chirality_3>
5_S_11_10_2_20

> <s_st_Chirality_4>
10_R_7_5_14_23

> <s_st_Chirality_5>
3_R_7_8_1_18

> <i_mmod_Serial_Number-OPLS-2005>
102

> <i_i_glide_lignum>
100

> <r_i_docking_score>
-7.01978

> <r_i_glide_gscore>
-7.01978

> <r_i_glide_lipo>
-0.559046

> <r_i_glide_hbond>
-1.57289

> <r_i_glide_metal>
0

> <r_i_glide_eburp>
-2.11203

> <r_i_glide_evdw>
-19.7124

> <r_i_glide_ecoul>
-15.4344

> <r_i_glide_erotb>
0.788112

> <r_i_glide_esite>
-0.44349

> <r_i_glide_emodel>
-48.7329

> <r_i_glide_energy>
-35.1468

> <r_i_glide_einternal>
6.67597

> <i_i_glide_confnum>
1

> <i_i_glide_posenum>
756

$$$$
C05579
                    3D
 Structure written by MMmdl.
 16 17  0  0  1  0            999 V2000
    3.7868   -0.0026    2.5365 C   0  0  0  0  0  0
    3.1879   -0.0528    1.2301 C   0  0  0  0  0  0
    3.0869   -0.0479    3.6850 C   0  0  0  0  0  0
    5.2071    0.0998    2.3290 C   0  0  0  0  0  0
    1.8590   -0.1505    1.0366 C   0  0  0  0  0  0
    4.2053    0.0167    0.3018 N   0  0  0  0  0  0
    1.6094   -0.1558    3.6255 C   0  0  0  0  0  0
    5.4000    0.1073    0.9992 C   0  0  0  0  0  0
    0.9528   -0.2107    2.2098 C   0  0  0  0  0  0
    0.9005   -0.2025    4.6301 O   0  0  0  0  0  0
   -0.2700   -0.3003    2.1069 O   0  0  0  0  0  0
    3.5727   -0.0077    4.6488 H   0  0  0  0  0  0
    5.9696    0.1592    3.0917 H   0  0  0  0  0  0
    1.4323   -0.1866    0.0451 H   0  0  0  0  0  0
    4.1004    0.0041   -0.7029 H   0  0  0  0  0  0
    6.3241    0.1718    0.4435 H   0  0  0  0  0  0
  1  2  1  0  0  0
  1  3  2  0  0  0
  1  4  1  0  0  0
  2  5  2  0  0  0
  2  6  1  0  0  0
  3  7  1  0  0  0
  3 12  1  0  0  0
  4  8  2  0  0  0
  4 13  1  0  0  0
  5  9  1  0  0  0
  5 14  1  0  0  0
  6  8  1  0  0  0
  6 15  1  0  0  0
  7 10  2  0  0  0
  7  9  1  0  0  0
  8 16  1  0  0  0
  9 11  2  0  0  0
M  END
> <i_ionizer_Ion_state_n>
0

> <i_ionizer_Tot_Q>
0

> <s_ionizer_Ion_centers>


> <s_ionizer_Ion_types>


> <s_ionizer_Ion_ctrs_in>


> <r_ionizer_Ionization_penalty>
0

> <r_ionizer_Ionization_penalty_charging>
0

> <r_ionizer_Ionization_penalty_neutral>
0

> <i_mmod_Serial_Number-OPLS-2005>
747

> <i_i_glide_lignum>
738

> <r_i_docking_score>
-7.01799

> <r_i_glide_gscore>
-7.01799

> <r_i_glide_lipo>
-0.622739

> <r_i_glide_hbond>
-0.798287

> <r_i_glide_metal>
0

> <r_i_glide_eburp>
-2.5

> <r_i_glide_evdw>
-20.3673

> <r_i_glide_ecoul>
-4.88943

> <r_i_glide_erotb>
0

> <r_i_glide_esite>
-0.97863

> <r_i_glide_emodel>
-35.1572

> <r_i_glide_energy>
-25.2567

> <r_i_glide_einternal>
0

> <i_i_glide_confnum>
1

> <i_i_glide_posenum>
728

$$$$
C00268
                    3D
 Structure written by MMmdl.
 30 31  0  0  1  0            999 V2000
    2.7563    4.0812    1.5124 C   0  0  0  0  0  0
    2.0001    3.3917    2.6317 C   0  0  0  0  0  0
    3.9222    3.4540    1.1026 N   0  0  0  0  0  0
    2.3356    5.1769    0.9595 N   0  0  0  0  0  0
    2.4114    2.3200    3.2008 N   0  0  0  0  0  0
    0.6981    4.0781    3.0170 C   0  0  0  0  0  0
    4.1314    2.0507    1.4220 C   0  0  0  0  0  0
    1.1285    5.7275    1.4189 C   0  0  0  0  0  0
    3.7412    1.7780    2.8984 C   0  0  2  0  0  0
    0.3469    5.2605    2.3518 N   0  0  0  0  0  0
    0.0015    3.5771    3.8997 O   0  0  0  0  0  0
    0.7238    6.8946    0.8105 N   0  0  0  0  0  0
    3.7844    0.2690    3.2520 C   0  0  2  0  0  0
    2.6885   -0.5892    2.5669 C   0  0  1  0  0  0
    3.6936    0.1000    4.6558 O   0  0  0  0  0  0
    1.2949   -0.4174    3.1918 C   0  0  0  0  0  0
    2.6121   -0.3039    1.1832 O   0  0  0  0  0  0
    4.5055    3.8317    0.3705 H   0  0  0  0  0  0
    3.5353    1.4384    0.7434 H   0  0  0  0  0  0
    5.1777    1.8020    1.2431 H   0  0  0  0  0  0
    4.4661    2.2930    3.5319 H   0  0  0  0  0  0
    1.2492    7.3456    0.0763 H   0  0  0  0  0  0
   -0.1253    7.3822    1.0548 H   0  0  0  0  0  0
    4.7571   -0.1229    2.9510 H   0  0  0  0  0  0
    2.9576   -1.6418    2.6596 H   0  0  0  0  0  0
    3.9953   -0.7690    4.8710 H   0  0  0  0  0  0
    0.5740   -1.0938    2.7316 H   0  0  0  0  0  0
    1.3156   -0.6389    4.2592 H   0  0  0  0  0  0
    0.9167    0.5978    3.0686 H   0  0  0  0  0  0
    3.4494   -0.4947    0.7893 H   0  0  0  0  0  0
  1  2  1  0  0  0
  1  3  1  0  0  0
  1  4  2  0  0  0
  2  5  2  0  0  0
  2  6  1  0  0  0
  3  7  1  0  0  0
  3 18  1  0  0  0
  4  8  1  0  0  0
  5  9  1  0  0  0
  6 10  1  0  0  0
  6 11  2  0  0  0
  7  9  1  0  0  0
  7 19  1  0  0  0
  7 20  1  0  0  0
  8 12  1  0  0  0
  8 10  2  0  0  0
  9 13  1  0  0  0
  9 21  1  0  0  0
 12 22  1  0  0  0
 12 23  1  0  0  0
 13 14  1  0  0  0
 13 15  1  0  0  0
 13 24  1  0  0  0
 14 16  1  0  0  0
 14 17  1  0  0  0
 14 25  1  0  0  0
 15 26  1  0  0  0
 16 27  1  0  0  0
 16 28  1  0  0  0
 16 29  1  0  0  0
 17 30  1  0  0  0
M  END
> <i_ionizer_Ion_state_n>
0

> <i_ionizer_Tot_Q>
0

> <s_ionizer_Ion_centers>


> <s_ionizer_Ion_types>


> <s_ionizer_Ion_ctrs_in>


> <r_ionizer_Ionization_penalty>
0

> <r_ionizer_Ionization_penalty_charging>
0

> <r_ionizer_Ionization_penalty_neutral>
0

> <s_st_Chirality_1>
9_R_5_13_7_21

> <s_st_Chirality_2>
13_R_15_14_9_24

> <s_st_Chirality_3>
14_R_17_13_16_25

> <s_st_EZ_1>
6_2_5_9_E

> <i_mmod_Serial_Number-OPLS-2005>
173

> <i_i_glide_lignum>
171

> <r_i_docking_score>
-7.01373

> <r_i_glide_gscore>
-7.01373

> <r_i_glide_lipo>
-0.48501

> <r_i_glide_hbond>
-1.4

> <r_i_glide_metal>
0

> <r_i_glide_eburp>
-1.97549

> <r_i_glide_evdw>
-30.1656

> <r_i_glide_ecoul>
-8.45802

> <r_i_glide_erotb>
0.690018

> <r_i_glide_esite>
-0.5842

> <r_i_glide_emodel>
-53.4003

> <r_i_glide_energy>
-38.6237

> <r_i_glide_einternal>
9.48548

> <i_i_glide_confnum>
2

> <i_i_glide_posenum>
368

$$$$
C02734
                    3D
 Structure written by MMmdl.
 16 16  0  0  1  0            999 V2000
    1.2242    1.3784    2.6862 C   0  0  0  0  0  0
    0.1008    2.0593    2.3091 O   0  0  0  0  0  0
    1.3137    0.8198    3.9771 C   0  0  0  0  0  0
    2.2880    1.2153    1.7765 C   0  0  0  0  0  0
   -0.0313    3.7778    2.7929 P   0  0  0  0  0  0
    2.4672    0.1078    4.3604 C   0  0  0  0  0  0
    3.4419    0.5035    2.1589 C   0  0  0  0  0  0
    1.0395    4.4473    1.9021 O   0  0  0  0  0  0
    3.5317   -0.0503    3.4512 C   0  0  0  0  0  0
    0.4974    0.9459    4.6731 H   0  0  0  0  0  0
    2.2177    1.6444    0.7879 H   0  0  0  0  0  0
    2.5349   -0.3150    5.3518 H   0  0  0  0  0  0
    4.2575    0.3842    1.4612 H   0  0  0  0  0  0
    4.4167   -0.5951    3.7451 H   0  0  0  0  0  0
   -1.5024    4.1002    2.4456 O   0  5  0  0  0  0
    0.3014    3.6997    4.2994 O   0  5  0  0  0  0
  1  2  1  0  0  0
  1  3  2  0  0  0
  1  4  1  0  0  0
  2  5  1  0  0  0
  3  6  1  0  0  0
  3 10  1  0  0  0
  4  7  2  0  0  0
  4 11  1  0  0  0
  5  8  2  0  0  0
  5 15  1  0  0  0
  5 16  1  0  0  0
  6  9  2  0  0  0
  6 12  1  0  0  0
  7  9  1  0  0  0
  7 13  1  0  0  0
  9 14  1  0  0  0
M  CHG  2  15  -1  16  -1
M  END
> <i_ionizer_Ion_state_n>
3

> <i_ionizer_Tot_Q>
-2

> <s_ionizer_Ion_centers>
15_16

> <s_ionizer_Ion_types>
OM_OM

> <s_ionizer_Ion_ctrs_in>
8_9

> <r_ionizer_Ionization_penalty>
1.49178e-05

> <r_ionizer_Ionization_penalty_charging>
1.49178e-05

> <r_ionizer_Ionization_penalty_neutral>
0

> <i_mmod_Serial_Number-OPLS-2005>
508

> <i_i_glide_lignum>
503

> <r_i_docking_score>
-7.01055

> <r_i_glide_gscore>
-7.01055

> <r_i_glide_lipo>
-0.59418

> <r_i_glide_hbond>
-1.4

> <r_i_glide_metal>
0

> <r_i_glide_eburp>
-2.88426

> <r_i_glide_evdw>
-11.4426

> <r_i_glide_ecoul>
-8.52685

> <r_i_glide_erotb>
0

> <r_i_glide_esite>
-0.364018

> <r_i_glide_emodel>
-50.1241

> <r_i_glide_energy>
-19.9694

> <r_i_glide_einternal>
0.287566

> <i_i_glide_confnum>
1

> <i_i_glide_posenum>
953

$$$$
C02043
                    3D
 Structure written by MMmdl.
 25 26  0  0  1  0            999 V2000
    3.7339    2.1117    2.3295 C   0  0  0  0  0  0
    3.4000    0.9719    1.5164 C   0  0  0  0  0  0
    3.4183    3.2911    1.5928 C   0  0  0  0  0  0
    4.2745    2.2840    3.6261 C   0  0  0  0  0  0
    3.5562   -0.4763    1.8755 C   0  0  0  0  0  0
    2.9016    1.4674    0.3383 C   0  0  0  0  0  0
    2.9143    2.8504    0.3857 N   0  0  0  0  0  0
    3.6307    4.5788    2.1183 C   0  0  0  0  0  0
    4.4911    3.5700    4.1620 C   0  0  0  0  0  0
    2.8983   -0.8215    3.2318 C   0  0  2  0  0  0
    4.1704    4.7169    3.4103 C   0  0  0  0  0  0
    1.3925   -0.5035    3.2753 C   0  0  0  0  0  0
    3.5492   -0.1122    4.2688 O   0  0  0  0  0  0
    0.8983   -0.0612    4.3364 O   0  0  0  0  0  0
    4.5242    1.4130    4.2141 H   0  0  0  0  0  0
    3.1440   -1.1114    1.0900 H   0  0  0  0  0  0
    4.6233   -0.7000    1.9046 H   0  0  0  0  0  0
    2.5345    0.9421   -0.5314 H   0  0  0  0  0  0
    2.5897    3.4326   -0.3727 H   0  0  0  0  0  0
    3.3816    5.4534    1.5361 H   0  0  0  0  0  0
    4.9047    3.6759    5.1542 H   0  0  0  0  0  0
    2.9975   -1.8901    3.4258 H   0  0  0  0  0  0
    4.3379    5.7002    3.8250 H   0  0  0  0  0  0
    4.0241   -0.7488    4.7830 H   0  0  0  0  0  0
    0.7531   -0.6960    2.2164 O   0  5  0  0  0  0
  1  2  1  0  0  0
  1  3  2  0  0  0
  1  4  1  0  0  0
  2  5  1  0  0  0
  2  6  2  0  0  0
  3  7  1  0  0  0
  3  8  1  0  0  0
  4  9  2  0  0  0
  4 15  1  0  0  0
  5 10  1  0  0  0
  5 16  1  0  0  0
  5 17  1  0  0  0
  6  7  1  0  0  0
  6 18  1  0  0  0
  7 19  1  0  0  0
  8 11  2  0  0  0
  8 20  1  0  0  0
  9 11  1  0  0  0
  9 21  1  0  0  0
 10 12  1  0  0  0
 10 13  1  0  0  0
 10 22  1  0  0  0
 11 23  1  0  0  0
 12 14  2  0  0  0
 12 25  1  0  0  0
 13 24  1  0  0  0
M  CHG  1  25  -1
M  END
> <i_ionizer_Ion_state_n>
1

> <i_ionizer_Tot_Q>
-1

> <s_ionizer_Ion_centers>
25

> <s_ionizer_Ion_types>
OM

> <s_ionizer_Ion_ctrs_in>
14

> <r_ionizer_Ionization_penalty>
0.00059219

> <r_ionizer_Ionization_penalty_charging>
0.00059219

> <r_ionizer_Ionization_penalty_neutral>
0

> <s_st_Chirality_1>
10_R_13_12_5_22

> <i_mmod_Serial_Number-OPLS-2005>
469

> <i_i_glide_lignum>
464

> <r_i_docking_score>
-6.99653

> <r_i_glide_gscore>
-6.99653

> <r_i_glide_lipo>
-0.879294

> <r_i_glide_hbond>
-0.45

> <r_i_glide_metal>
0

> <r_i_glide_eburp>
-2.24085

> <r_i_glide_evdw>
-23.7468

> <r_i_glide_ecoul>
-5.66164

> <r_i_glide_erotb>
0.450731

> <r_i_glide_esite>
-1.41121

> <r_i_glide_emodel>
-48.4205

> <r_i_glide_energy>
-29.4084

> <r_i_glide_einternal>
4.69736

> <i_i_glide_confnum>
2

> <i_i_glide_posenum>
685

$$$$
C05299
                    3D
 Structure written by MMmdl.
 46 49  0  0  1  0            999 V2000
    1.2591    3.9904    2.8651 C   0  0  1  0  0  0
    2.5455    3.4051    2.2166 C   0  0  2  0  0  0
    0.6918    5.1693    2.0588 C   0  0  0  0  0  0
    0.2314    2.8718    3.2139 C   0  0  0  0  0  0
    3.0966    2.3083    3.1448 C   0  0  1  0  0  0
    3.5456    4.5341    1.9454 C   0  0  0  0  0  0
    1.5190    5.8930    1.1591 C   0  0  0  0  0  0
   -0.6497    5.5872    2.2365 C   0  0  0  0  0  0
    0.8449    1.6971    4.0177 C   0  0  0  0  0  0
    2.1013    1.1476    3.3162 C   0  0  2  0  0  0
    4.4476    1.6369    2.8591 C   0  0  0  0  0  0
    2.9765    5.5219    0.9213 C   0  0  0  0  0  0
    0.9910    6.9847    0.4423 C   0  0  0  0  0  0
   -1.1828    6.6860    1.5171 C   0  0  0  0  0  0
    2.9756    0.2036    4.1356 C   0  0  0  0  0  0
    1.7233    0.4037    2.0074 C   0  0  0  0  0  0
    4.4511    0.4116    3.7971 C   0  0  0  0  0  0
   -0.3473    7.3763    0.6174 C   0  0  0  0  0  0
   -2.4819    7.1358    1.6415 O   0  0  0  0  0  0
    2.5553   -0.6183    4.9480 O   0  0  0  0  0  0
   -0.8363    8.4372   -0.0881 O   0  0  0  0  0  0
   -2.7489    8.1767    2.5699 C   0  0  0  0  0  0
    1.5536    4.4361    3.8167 H   0  0  0  0  0  0
    2.2973    2.9663    1.2505 H   0  0  0  0  0  0
    3.2256    2.7912    4.1179 H   0  0  0  0  0  0
   -0.5845    3.2715    3.8138 H   0  0  0  0  0  0
   -0.2241    2.4976    2.2971 H   0  0  0  0  0  0
    3.7623    5.0563    2.8783 H   0  0  0  0  0  0
    4.4958    4.1434    1.5808 H   0  0  0  0  0  0
   -1.2738    5.0630    2.9393 H   0  0  0  0  0  0
    1.0974    2.0405    5.0222 H   0  0  0  0  0  0
    0.1028    0.9080    4.1455 H   0  0  0  0  0  0
    4.5185    1.3272    1.8159 H   0  0  0  0  0  0
    5.2853    2.3045    3.0635 H   0  0  0  0  0  0
    3.5863    6.4260    0.9040 H   0  0  0  0  0  0
    3.0432    5.0842   -0.0755 H   0  0  0  0  0  0
    1.6184    7.5287   -0.2489 H   0  0  0  0  0  0
    1.0494   -0.4276    2.2184 H   0  0  0  0  0  0
    1.2123    1.0412    1.2882 H   0  0  0  0  0  0
    2.5921   -0.0143    1.4977 H   0  0  0  0  0  0
    5.0029    0.6176    4.7147 H   0  0  0  0  0  0
    4.8799   -0.4705    3.3212 H   0  0  0  0  0  0
   -0.4426    9.2526    0.1840 H   0  0  0  0  0  0
   -3.8143    8.4061    2.5558 H   0  0  0  0  0  0
   -2.4896    7.8806    3.5873 H   0  0  0  0  0  0
   -2.2123    9.0901    2.3101 H   0  0  0  0  0  0
  1  2  1  0  0  0
  1  3  1  0  0  0
  1  4  1  0  0  0
  1 23  1  0  0  0
  2  5  1  0  0  0
  2  6  1  0  0  0
  2 24  1  0  0  0
  3  7  2  0  0  0
  3  8  1  0  0  0
  4  9  1  0  0  0
  4 26  1  0  0  0
  4 27  1  0  0  0
  5 10  1  0  0  0
  5 11  1  0  0  0
  5 25  1  0  0  0
  6 12  1  0  0  0
  6 28  1  0  0  0
  6 29  1  0  0  0
  7 13  1  0  0  0
  7 12  1  0  0  0
  8 14  2  0  0  0
  8 30  1  0  0  0
  9 10  1  0  0  0
  9 31  1  0  0  0
  9 32  1  0  0  0
 10 15  1  0  0  0
 10 16  1  0  0  0
 11 17  1  0  0  0
 11 33  1  0  0  0
 11 34  1  0  0  0
 12 35  1  0  0  0
 12 36  1  0  0  0
 13 18  2  0  0  0
 13 37  1  0  0  0
 14 19  1  0  0  0
 14 18  1  0  0  0
 15 20  2  0  0  0
 15 17  1  0  0  0
 16 38  1  0  0  0
 16 39  1  0  0  0
 16 40  1  0  0  0
 17 41  1  0  0  0
 17 42  1  0  0  0
 18 21  1  0  0  0
 19 22  1  0  0  0
 21 43  1  0  0  0
 22 44  1  0  0  0
 22 45  1  0  0  0
 22 46  1  0  0  0
M  END
> <i_ionizer_Ion_state_n>
0

> <i_ionizer_Tot_Q>
0

> <s_ionizer_Ion_centers>


> <s_ionizer_Ion_types>


> <s_ionizer_Ion_ctrs_in>


> <r_ionizer_Ionization_penalty>
0.00059219

> <r_ionizer_Ionization_penalty_charging>
0

> <r_ionizer_Ionization_penalty_neutral>
0.00059219

> <s_st_Chirality_1>
1_S_3_2_4_23

> <s_st_Chirality_2>
2_R_5_1_6_24

> <s_st_Chirality_3>
5_S_10_2_11_25

> <s_st_Chirality_4>
10_S_15_5_9_16

> <i_mmod_Serial_Number-OPLS-2005>
670

> <i_i_glide_lignum>
663

> <r_i_docking_score>
-6.9861

> <r_i_glide_gscore>
-6.9861

> <r_i_glide_lipo>
-1.657

> <r_i_glide_hbond>
-0.45

> <r_i_glide_metal>
0

> <r_i_glide_eburp>
-1.51211

> <r_i_glide_evdw>
-31.9777

> <r_i_glide_ecoul>
-1.29099

> <r_i_glide_erotb>
0

> <r_i_glide_esite>
-0.679677

> <r_i_glide_emodel>
-44.288

> <r_i_glide_energy>
-33.2687

> <r_i_glide_einternal>
7.42656

> <i_i_glide_confnum>
1

> <i_i_glide_posenum>
413

$$$$
C11429
                    3D
 Structure written by MMmdl.
 25 28  0  0  1  0            999 V2000
   -0.0319    3.7597    2.7002 C   0  0  2  0  0  0
    0.4056    2.4764    3.3284 C   0  0  1  0  0  0
    2.7828    2.9232    2.5883 C   0  0  0  0  0  0
    1.8455    2.0852    3.2570 C   0  0  0  0  0  0
    2.2535    0.8727    3.8514 C   0  0  0  0  0  0
    3.5969    0.4678    3.7983 C   0  0  0  0  0  0
    4.5374    1.2794    3.1455 C   0  0  0  0  0  0
    4.1335    2.4889    2.5499 C   0  0  0  0  0  0
    0.9821    4.6180    2.0172 C   0  0  0  0  0  0
    2.3447    4.2084    1.9592 C   0  0  0  0  0  0
    3.2550    5.0661    1.2883 C   0  0  0  0  0  0
    2.8348    6.2739    0.7005 C   0  0  0  0  0  0
    1.4867    6.6580    0.7680 C   0  0  0  0  0  0
    0.5641    5.8285    1.4254 C   0  0  0  0  0  0
    0.2050    3.6613    4.1115 O   0  0  0  0  0  0
   -1.0702    3.9315    2.4227 H   0  0  0  0  0  0
   -0.3000    1.6723    3.5287 H   0  0  0  0  0  0
    1.5309    0.2466    4.3544 H   0  0  0  0  0  0
    3.9040   -0.4610    4.2561 H   0  0  0  0  0  0
    5.5728    0.9752    3.1002 H   0  0  0  0  0  0
    4.9001    3.0689    2.0637 H   0  0  0  0  0  0
    4.3015    4.8250    1.2040 H   0  0  0  0  0  0
    3.5509    6.9064    0.1967 H   0  0  0  0  0  0
    1.1614    7.5843    0.3177 H   0  0  0  0  0  0
   -0.4732    6.1258    1.4764 H   0  0  0  0  0  0
  1  9  1  0  0  0
  1  2  1  0  0  0
  1 15  1  0  0  0
  1 16  1  0  0  0
  2  4  1  0  0  0
  2 15  1  0  0  0
  2 17  1  0  0  0
  3  8  1  0  0  0
  3 10  1  0  0  0
  3  4  2  0  0  0
  4  5  1  0  0  0
  5  6  2  0  0  0
  5 18  1  0  0  0
  6  7  1  0  0  0
  6 19  1  0  0  0
  7  8  2  0  0  0
  7 20  1  0  0  0
  8 21  1  0  0  0
  9 10  2  0  0  0
  9 14  1  0  0  0
 10 11  1  0  0  0
 11 12  2  0  0  0
 11 22  1  0  0  0
 12 13  1  0  0  0
 12 23  1  0  0  0
 13 14  2  0  0  0
 13 24  1  0  0  0
 14 25  1  0  0  0
M  END
> <i_ionizer_Ion_state_n>
0

> <i_ionizer_Tot_Q>
0

> <s_ionizer_Ion_centers>


> <s_ionizer_Ion_types>


> <s_ionizer_Ion_ctrs_in>


> <r_ionizer_Ionization_penalty>
0

> <r_ionizer_Ionization_penalty_charging>
0

> <r_ionizer_Ionization_penalty_neutral>
0

> <s_st_Chirality_1>
1_S_15_2_9_16

> <s_st_Chirality_2>
2_R_15_1_4_17

> <i_mmod_Serial_Number-OPLS-2005>
936

> <i_i_glide_lignum>
919

> <r_i_docking_score>
-6.98415

> <r_i_glide_gscore>
-6.98415

> <r_i_glide_lipo>
-1.29516

> <r_i_glide_hbond>
-0.5

> <r_i_glide_metal>
0

> <r_i_glide_eburp>
-2.3164

> <r_i_glide_evdw>
-19.4708

> <r_i_glide_ecoul>
-4.08526

> <r_i_glide_erotb>
0

> <r_i_glide_esite>
-0.906402

> <r_i_glide_emodel>
-33.9887

> <r_i_glide_energy>
-23.556

> <r_i_glide_einternal>
0

> <i_i_glide_confnum>
1

> <i_i_glide_posenum>
502

$$$$
C05583
                    3D
 Structure written by MMmdl.
 23 23  0  0  1  0            999 V2000
    3.0437    3.3464    3.0950 C   0  0  0  0  0  0
    2.6319    1.9956    3.1018 C   0  0  0  0  0  0
    2.2657    4.3948    2.3109 C   0  0  2  0  0  0
    4.1862    3.7218    3.8307 C   0  0  0  0  0  0
    3.3383    1.0229    3.8383 C   0  0  0  0  0  0
    0.7858    4.3926    2.6997 C   0  0  0  0  0  0
    2.3858    4.2318    0.9109 O   0  0  0  0  0  0
    4.9119    2.7565    4.5526 C   0  0  0  0  0  0
    4.5006    1.4086    4.5561 C   0  0  0  0  0  0
    2.8667   -0.2685    3.7838 O   0  0  0  0  0  0
    0.4323    4.0852    3.8373 O   0  0  0  0  0  0
    5.2590    0.4999    5.2377 O   0  0  0  0  0  0
    1.5625   -0.4895    4.3023 C   0  0  0  0  0  0
    1.7558    1.6986    2.5437 H   0  0  0  0  0  0
    2.6673    5.3796    2.5527 H   0  0  0  0  0  0
    4.5159    4.7505    3.8386 H   0  0  0  0  0  0
    0.0831    4.6751    1.9150 H   0  0  0  0  0  0
    3.2944    4.3491    0.6773 H   0  0  0  0  0  0
    5.7942    3.0559    5.0992 H   0  0  0  0  0  0
    4.8986   -0.3732    5.2210 H   0  0  0  0  0  0
    1.0987   -1.3166    3.7651 H   0  0  0  0  0  0
    1.6020   -0.7669    5.3556 H   0  0  0  0  0  0
    0.9164    0.3826    4.1878 H   0  0  0  0  0  0
  1  2  1  0  0  0
  1  3  1  0  0  0
  1  4  2  0  0  0
  2  5  2  0  0  0
  2 14  1  0  0  0
  3  6  1  0  0  0
  3  7  1  0  0  0
  3 15  1  0  0  0
  4  8  1  0  0  0
  4 16  1  0  0  0
  5  9  1  0  0  0
  5 10  1  0  0  0
  6 11  2  0  0  0
  6 17  1  0  0  0
  7 18  1  0  0  0
  8  9  2  0  0  0
  8 19  1  0  0  0
  9 12  1  0  0  0
 10 13  1  0  0  0
 12 20  1  0  0  0
 13 21  1  0  0  0
 13 22  1  0  0  0
 13 23  1  0  0  0
M  END
> <i_ionizer_Ion_state_n>
0

> <i_ionizer_Tot_Q>
0

> <s_ionizer_Ion_centers>


> <s_ionizer_Ion_types>


> <s_ionizer_Ion_ctrs_in>


> <r_ionizer_Ionization_penalty>
0.00059219

> <r_ionizer_Ionization_penalty_charging>
0

> <r_ionizer_Ionization_penalty_neutral>
0.00059219

> <s_st_Chirality_1>
3_R_7_6_1_15

> <i_mmod_Serial_Number-OPLS-2005>
751

> <i_i_glide_lignum>
742

> <r_i_docking_score>
-6.97964

> <r_i_glide_gscore>
-6.97964

> <r_i_glide_lipo>
-0.747907

> <r_i_glide_hbond>
-0.95

> <r_i_glide_metal>
0

> <r_i_glide_eburp>
-2.40775

> <r_i_glide_evdw>
-22.6601

> <r_i_glide_ecoul>
-7.16345

> <r_i_glide_erotb>
0.544679

> <r_i_glide_esite>
-0.889507

> <r_i_glide_emodel>
-39.1027

> <r_i_glide_energy>
-29.8236

> <r_i_glide_einternal>
2.28827

> <i_i_glide_confnum>
1

> <i_i_glide_posenum>
386

$$$$
C01168
                    3D
 Structure written by MMmdl.
 32 33  0  0  1  0            999 V2000
    2.8981   -0.1335    1.6208 C   0  0  2  0  0  0
    4.1894   -0.2385    0.8080 C   0  0  0  0  0  0
    2.0872    0.9552    1.1917 O   0  0  0  0  0  0
    3.1911    0.1263    3.0937 C   0  0  1  0  0  0
    4.9882    0.9834    0.6246 C   0  0  0  0  0  0
    4.6551   -1.4086    0.2925 C   0  0  0  0  0  0
    1.5881    1.6944    2.2891 C   0  0  1  0  0  0
    1.9930    0.9257    3.5560 C   0  0  1  0  0  0
    3.2561   -1.1003    3.7984 O   0  0  0  0  0  0
    6.1744    0.8224   -0.1006 N   0  0  0  0  0  0
    4.6895    2.0995    1.0456 O   0  0  0  0  0  0
    5.8342   -1.4999   -0.4170 N   0  0  0  0  0  0
    2.0879    3.1492    2.3028 C   0  0  0  0  0  0
    0.9525    0.1135    4.0622 O   0  0  0  0  0  0
    6.6322   -0.3790   -0.6360 C   0  0  0  0  0  0
    1.0626    4.0414    1.8989 O   0  0  0  0  0  0
    7.6841   -0.4475   -1.2658 O   0  0  0  0  0  0
   -0.2062    4.3731    3.1185 P   0  0  0  0  0  0
   -1.4995    4.1590    2.3018 O   0  0  0  0  0  0
    2.3430   -1.0671    1.5126 H   0  0  0  0  0  0
    4.1306    0.6598    3.2436 H   0  0  0  0  0  0
    4.0981   -2.3236    0.4241 H   0  0  0  0  0  0
    0.4989    1.6771    2.2247 H   0  0  0  0  0  0
    2.3017    1.6320    4.3281 H   0  0  0  0  0  0
    3.7515   -0.9434    4.5893 H   0  0  0  0  0  0
    6.7425    1.6432   -0.2485 H   0  0  0  0  0  0
    6.1465   -2.3837   -0.7933 H   0  0  0  0  0  0
    2.5107    3.4110    3.2731 H   0  0  0  0  0  0
    2.8943    3.2608    1.5782 H   0  0  0  0  0  0
    1.3234   -0.3993    4.7779 H   0  0  0  0  0  0
    0.0988    3.3098    4.1971 O   0  5  0  0  0  0
    0.1113    5.8346    3.5019 O   0  5  0  0  0  0
  1  2  1  0  0  0
  1  3  1  0  0  0
  1  4  1  0  0  0
  1 20  1  0  0  0
  2  5  1  0  0  0
  2  6  2  0  0  0
  3  7  1  0  0  0
  4  8  1  0  0  0
  4  9  1  0  0  0
  4 21  1  0  0  0
  5 10  1  0  0  0
  5 11  2  0  0  0
  6 12  1  0  0  0
  6 22  1  0  0  0
  7 13  1  0  0  0
  7  8  1  0  0  0
  7 23  1  0  0  0
  8 14  1  0  0  0
  8 24  1  0  0  0
  9 25  1  0  0  0
 10 15  1  0  0  0
 10 26  1  0  0  0
 12 15  1  0  0  0
 12 27  1  0  0  0
 13 16  1  0  0  0
 13 28  1  0  0  0
 13 29  1  0  0  0
 14 30  1  0  0  0
 15 17  2  0  0  0
 16 18  1  0  0  0
 18 19  2  0  0  0
 18 31  1  0  0  0
 18 32  1  0  0  0
M  CHG  2  31  -1  32  -1
M  END
> <i_ionizer_Ion_state_n>
3

> <i_ionizer_Tot_Q>
-2

> <s_ionizer_Ion_centers>
31_32

> <s_ionizer_Ion_types>
OM_OM

> <s_ionizer_Ion_ctrs_in>
19_20

> <r_ionizer_Ionization_penalty>
1.49178e-05

> <r_ionizer_Ionization_penalty_charging>
1.49178e-05

> <r_ionizer_Ionization_penalty_neutral>
0

> <s_st_Chirality_1>
1_S_3_4_2_20

> <s_st_Chirality_2>
4_S_9_8_1_21

> <s_st_Chirality_3>
7_R_3_8_13_23

> <s_st_Chirality_4>
8_R_14_4_7_24

> <i_mmod_Serial_Number-OPLS-2005>
410

> <i_i_glide_lignum>
406

> <r_i_docking_score>
-6.97642

> <r_i_glide_gscore>
-6.97642

> <r_i_glide_lipo>
-0.775298

> <r_i_glide_hbond>
-1.66653

> <r_i_glide_metal>
0

> <r_i_glide_eburp>
-1.7472

> <r_i_glide_evdw>
-30.7999

> <r_i_glide_ecoul>
-3.92751

> <r_i_glide_erotb>
0.6176

> <r_i_glide_esite>
-0.548252

> <r_i_glide_emodel>
-75.441

> <r_i_glide_energy>
-34.7274

> <r_i_glide_einternal>
11.3308

> <i_i_glide_confnum>
52

> <i_i_glide_posenum>
174

$$$$
C00547
                    3D
 Structure written by MMmdl.
 24 24  0  0  1  0            999 V2000
    3.3954    0.4367    1.6904 C   0  0  0  0  0  0
    3.8741    0.3973    3.0168 C   0  0  0  0  0  0
    2.0589    0.0648    1.4259 C   0  0  0  0  0  0
    4.3122    0.8858    0.5627 C   0  0  2  0  0  0
    3.0275   -0.0128    4.0644 C   0  0  0  0  0  0
    1.2088   -0.3457    2.4719 C   0  0  0  0  0  0
    5.4356   -0.1335    0.3021 C   0  0  0  0  0  0
    4.8915    2.1483    0.8293 O   0  0  0  0  0  0
    1.6954   -0.3856    3.7983 C   0  0  0  0  0  0
    0.8993   -0.7787    4.8371 O   0  0  0  0  0  0
   -0.0780   -0.6968    2.1754 O   0  0  0  0  0  0
    4.8927    0.6802    3.2392 H   0  0  0  0  0  0
    1.6773    0.0946    0.4157 H   0  0  0  0  0  0
    3.7145    0.9942   -0.3438 H   0  0  0  0  0  0
    3.4035   -0.0409    5.0768 H   0  0  0  0  0  0
    6.0013    0.1308   -0.5923 H   0  0  0  0  0  0
    6.1396   -0.1362    1.1353 H   0  0  0  0  0  0
    4.2009    2.7859    0.9312 H   0  0  0  0  0  0
    5.6542   -2.1415   -0.0477 H   0  0  0  0  0  0
    4.4316   -1.7757    0.9991 H   0  0  0  0  0  0
    1.3379   -0.8317    5.6702 H   0  0  0  0  0  0
   -0.4378   -1.3708    2.7283 H   0  0  0  0  0  0
    4.9007   -1.4983    0.1488 N   0  3  0  0  0  0
    4.2381   -1.5070   -0.6142 H   0  0  0  0  0  0
  1  2  2  0  0  0
  1  3  1  0  0  0
  1  4  1  0  0  0
  2  5  1  0  0  0
  2 12  1  0  0  0
  3  6  2  0  0  0
  3 13  1  0  0  0
  4  7  1  0  0  0
  4  8  1  0  0  0
  4 14  1  0  0  0
  5  9  2  0  0  0
  5 15  1  0  0  0
  6  9  1  0  0  0
  6 11  1  0  0  0
  7 16  1  0  0  0
  7 17  1  0  0  0
  7 23  1  0  0  0
  8 18  1  0  0  0
  9 10  1  0  0  0
 10 21  1  0  0  0
 11 22  1  0  0  0
 19 23  1  0  0  0
 20 23  1  0  0  0
 23 24  1  0  0  0
M  CHG  1  23   1
M  END
> <i_ionizer_Ion_state_n>
1

> <i_ionizer_Tot_Q>
1

> <s_ionizer_Ion_centers>
23

> <s_ionizer_Ion_types>
N5

> <s_ionizer_Ion_ctrs_in>
10

> <r_ionizer_Ionization_penalty>
0.00137171

> <r_ionizer_Ionization_penalty_charging>
0.000187331

> <r_ionizer_Ionization_penalty_neutral>
0.00118438

> <s_st_Chirality_1>
4_R_8_7_1_14

> <i_mmod_Serial_Number-OPLS-2005>
277

> <i_i_glide_lignum>
275

> <r_i_docking_score>
-6.96755

> <r_i_glide_gscore>
-6.96755

> <r_i_glide_lipo>
-0.849737

> <r_i_glide_hbond>
-1.32578

> <r_i_glide_metal>
0

> <r_i_glide_eburp>
-2.49856

> <r_i_glide_evdw>
-19.5767

> <r_i_glide_ecoul>
-8.92655

> <r_i_glide_erotb>
0.608914

> <r_i_glide_esite>
-0.443587

> <r_i_glide_emodel>
-43.7881

> <r_i_glide_energy>
-28.5033

> <r_i_glide_einternal>
2.10751

> <i_i_glide_confnum>
2

> <i_i_glide_posenum>
710

$$$$
C00366
                    3D
 Structure written by MMmdl.
 16 17  0  0  1  0            999 V2000
    2.8927    0.2284    3.6424 C   0  0  0  0  0  0
    2.6116    1.3458    2.9773 C   0  0  0  0  0  0
    1.9387   -0.7046    3.2946 N   0  0  0  0  0  0
    3.9577    0.1001    4.5035 N   0  0  0  0  0  0
    3.4210    2.5509    3.1053 C   0  0  0  0  0  0
    1.4874    1.1184    2.2149 N   0  0  0  0  0  0
    1.0791   -0.1491    2.4170 C   0  0  0  0  0  0
    4.8032    1.2035    4.7000 C   0  0  0  0  0  0
    4.4998    2.3823    3.9932 N   0  0  0  0  0  0
    3.2309    3.6195    2.5290 O   0  0  0  0  0  0
    0.1085   -0.6953    1.9001 O   0  0  0  0  0  0
    5.7675    1.1420    5.4576 O   0  0  0  0  0  0
    1.9139   -1.6466    3.6564 H   0  0  0  0  0  0
    4.1522   -0.7584    4.9982 H   0  0  0  0  0  0
    1.0670    1.8129    1.6149 H   0  0  0  0  0  0
    5.1084    3.1750    4.1352 H   0  0  0  0  0  0
  1  2  2  0  0  0
  1  3  1  0  0  0
  1  4  1  0  0  0
  2  5  1  0  0  0
  2  6  1  0  0  0
  3  7  1  0  0  0
  3 13  1  0  0  0
  4  8  1  0  0  0
  4 14  1  0  0  0
  5  9  1  0  0  0
  5 10  2  0  0  0
  6  7  1  0  0  0
  6 15  1  0  0  0
  7 11  2  0  0  0
  8 12  2  0  0  0
  8  9  1  0  0  0
  9 16  1  0  0  0
M  END
> <i_ionizer_Ion_state_n>
0

> <i_ionizer_Tot_Q>
0

> <s_ionizer_Ion_centers>


> <s_ionizer_Ion_types>


> <s_ionizer_Ion_ctrs_in>


> <r_ionizer_Ionization_penalty>
0

> <r_ionizer_Ionization_penalty_charging>
0

> <r_ionizer_Ionization_penalty_neutral>
0

> <i_mmod_Serial_Number-OPLS-2005>
213

> <i_i_glide_lignum>
211

> <r_i_docking_score>
-6.96263

> <r_i_glide_gscore>
-6.96263

> <r_i_glide_lipo>
-0.169241

> <r_i_glide_hbond>
-0.776115

> <r_i_glide_metal>
0

> <r_i_glide_eburp>
-2.5

> <r_i_glide_evdw>
-25.39

> <r_i_glide_ecoul>
-6.80404

> <r_i_glide_erotb>
0

> <r_i_glide_esite>
-0.805664

> <r_i_glide_emodel>
-44.1478

> <r_i_glide_energy>
-32.1941

> <r_i_glide_einternal>
0

> <i_i_glide_confnum>
1

> <i_i_glide_posenum>
417

$$$$
C00559
                    3D
 Structure written by MMmdl.
 31 33  0  0  1  0            999 V2000
    1.8813    3.2543    2.4205 N   0  0  0  0  0  0
    1.5720    4.4937    1.9026 C   0  0  0  0  0  0
    3.0098    2.3772    1.9696 C   0  0  2  0  0  0
    0.9062    3.0137    3.3673 C   0  0  0  0  0  0
    0.4253    4.9388    2.6146 C   0  0  0  0  0  0
    2.2153    5.1784    0.9120 N   0  0  0  0  0  0
    2.5477    1.0577    1.9281 O   0  0  0  0  0  0
    4.1384    2.3979    3.0004 C   0  0  0  0  0  0
    0.0370    3.9747    3.5348 N   0  0  0  0  0  0
   -0.0678    6.2167    2.2501 C   0  0  0  0  0  0
    1.6382    6.3606    0.6782 C   0  0  0  0  0  0
    3.0237    0.3184    3.0573 C   0  0  1  0  0  0
    3.6593    1.3570    3.9894 C   0  0  1  0  0  0
    0.5695    6.9020    1.2725 N   0  0  0  0  0  0
   -1.1385    6.7791    2.8257 N   0  0  0  0  0  0
    1.8870   -0.4994    3.6913 C   0  0  0  0  0  0
    4.7419    0.8273    4.7262 O   0  0  0  0  0  0
    1.2999   -1.3492    2.7280 O   0  0  0  0  0  0
    3.2823    2.7602    0.9855 H   0  0  0  0  0  0
    0.8501    2.0977    3.9357 H   0  0  0  0  0  0
    5.0580    2.0793    2.5069 H   0  0  0  0  0  0
    4.2957    3.3849    3.4355 H   0  0  0  0  0  0
    2.0970    6.9602   -0.0944 H   0  0  0  0  0  0
    3.7932   -0.3534    2.6723 H   0  0  0  0  0  0
    2.9171    1.7879    4.6631 H   0  0  0  0  0  0
   -1.4483    7.6922    2.5268 H   0  0  0  0  0  0
   -1.6310    6.2853    3.5561 H   0  0  0  0  0  0
    2.2468   -1.0961    4.5292 H   0  0  0  0  0  0
    1.1156    0.1684    4.0754 H   0  0  0  0  0  0
    4.4800   -0.0127    5.0738 H   0  0  0  0  0  0
    0.5177   -1.7300    3.0980 H   0  0  0  0  0  0
  1  2  1  0  0  0
  1  3  1  0  0  0
  1  4  1  0  0  0
  2  5  2  0  0  0
  2  6  1  0  0  0
  3  7  1  0  0  0
  3  8  1  0  0  0
  3 19  1  0  0  0
  4  9  2  0  0  0
  4 20  1  0  0  0
  5 10  1  0  0  0
  5  9  1  0  0  0
  6 11  2  0  0  0
  7 12  1  0  0  0
  8 13  1  0  0  0
  8 21  1  0  0  0
  8 22  1  0  0  0
 10 14  2  0  0  0
 10 15  1  0  0  0
 11 14  1  0  0  0
 11 23  1  0  0  0
 12 16  1  0  0  0
 12 13  1  0  0  0
 12 24  1  0  0  0
 13 17  1  0  0  0
 13 25  1  0  0  0
 15 26  1  0  0  0
 15 27  1  0  0  0
 16 18  1  0  0  0
 16 28  1  0  0  0
 16 29  1  0  0  0
 17 30  1  0  0  0
 18 31  1  0  0  0
M  END
> <i_ionizer_Ion_state_n>
0

> <i_ionizer_Tot_Q>
0

> <s_ionizer_Ion_centers>


> <s_ionizer_Ion_types>


> <s_ionizer_Ion_ctrs_in>


> <r_ionizer_Ionization_penalty>
1.87357e-05

> <r_ionizer_Ionization_penalty_charging>
0

> <r_ionizer_Ionization_penalty_neutral>
1.87357e-05

> <s_st_Chirality_1>
3_R_7_1_8_19

> <s_st_Chirality_2>
12_R_7_13_16_24

> <s_st_Chirality_3>
13_S_17_12_8_25

> <i_mmod_Serial_Number-OPLS-2005>
279

> <i_i_glide_lignum>
277

> <r_i_docking_score>
-6.96153

> <r_i_glide_gscore>
-6.96153

> <r_i_glide_lipo>
-0.537986

> <r_i_glide_hbond>
-1.41248

> <r_i_glide_metal>
0

> <r_i_glide_eburp>
-1.88449

> <r_i_glide_evdw>
-26.5267

> <r_i_glide_ecoul>
-8.43371

> <r_i_glide_erotb>
0.634564

> <r_i_glide_esite>
-0.795621

> <r_i_glide_emodel>
-48.4338

> <r_i_glide_energy>
-34.9605

> <r_i_glide_einternal>
3.74164

> <i_i_glide_confnum>
5

> <i_i_glide_posenum>
638

$$$$
C05585
                    3D
 Structure written by MMmdl.
 16 16  0  0  1  0            999 V2000
    2.8544   -0.1868    3.1488 C   0  0  0  0  0  0
    4.2593    0.0077    3.1111 C   0  0  0  0  0  0
    2.1374   -0.2750    1.9332 C   0  0  0  0  0  0
    2.1196   -0.2999    4.4359 C   0  0  0  0  0  0
    4.9221    0.1105    1.8709 C   0  0  0  0  0  0
    5.0024    0.1002    4.2553 O   0  0  0  0  0  0
    2.8057   -0.1715    0.6982 C   0  0  0  0  0  0
    0.9002   -0.4376    4.5285 O   0  0  0  0  0  0
    4.1992    0.0214    0.6669 C   0  0  0  0  0  0
    2.0998   -0.2586   -0.4661 O   0  0  0  0  0  0
    1.0667   -0.4230    1.9383 H   0  0  0  0  0  0
    2.7412   -0.2528    5.3297 H   0  0  0  0  0  0
    5.9916    0.2586    1.8374 H   0  0  0  0  0  0
    4.7618   -0.5380    4.9094 H   0  0  0  0  0  0
    4.7184    0.1017   -0.2770 H   0  0  0  0  0  0
    2.6494   -0.2997   -1.2336 H   0  0  0  0  0  0
  1  2  2  0  0  0
  1  3  1  0  0  0
  1  4  1  0  0  0
  2  5  1  0  0  0
  2  6  1  0  0  0
  3  7  2  0  0  0
  3 11  1  0  0  0
  4  8  2  0  0  0
  4 12  1  0  0  0
  5  9  2  0  0  0
  5 13  1  0  0  0
  6 14  1  0  0  0
  7 10  1  0  0  0
  7  9  1  0  0  0
  9 15  1  0  0  0
 10 16  1  0  0  0
M  END
> <i_ionizer_Ion_state_n>
0

> <i_ionizer_Tot_Q>
0

> <s_ionizer_Ion_centers>


> <s_ionizer_Ion_types>


> <s_ionizer_Ion_ctrs_in>


> <r_ionizer_Ionization_penalty>
0.00118438

> <r_ionizer_Ionization_penalty_charging>
0

> <r_ionizer_Ionization_penalty_neutral>
0.00118438

> <i_mmod_Serial_Number-OPLS-2005>
753

> <i_i_glide_lignum>
744

> <r_i_docking_score>
-6.96149

> <r_i_glide_gscore>
-6.96149

> <r_i_glide_lipo>
-0.624366

> <r_i_glide_hbond>
-0.9

> <r_i_glide_metal>
0

> <r_i_glide_eburp>
-2.5

> <r_i_glide_evdw>
-16.6967

> <r_i_glide_ecoul>
-9.19315

> <r_i_glide_erotb>
0

> <r_i_glide_esite>
-0.682077

> <r_i_glide_emodel>
-34.134

> <r_i_glide_energy>
-25.8898

> <r_i_glide_einternal>
1.64205

> <i_i_glide_confnum>
1

> <i_i_glide_posenum>
335

$$$$
C01179
                    3D
 Structure written by MMmdl.
 20 20  0  0  1  0            999 V2000
    1.1816    3.9179    2.2850 C   0  0  0  0  0  0
   -0.0758    3.7681    3.1676 C   0  0  0  0  0  0
    1.8567    2.6162    1.8280 C   0  0  0  0  0  0
    1.6243    5.0225    1.9617 O   0  0  0  0  0  0
    0.0999    3.2641    4.2998 O   0  0  0  0  0  0
    2.8424    2.0518    2.8371 C   0  0  0  0  0  0
    2.6532    0.7571    3.3644 C   0  0  0  0  0  0
    3.9473    2.8225    3.2553 C   0  0  0  0  0  0
    3.5661    0.2351    4.3015 C   0  0  0  0  0  0
    4.8603    2.3002    4.1923 C   0  0  0  0  0  0
    4.6700    1.0058    4.7158 C   0  0  0  0  0  0
    5.5528    0.4973    5.6234 O   0  0  0  0  0  0
    1.0867    1.8711    1.6258 H   0  0  0  0  0  0
    2.3746    2.7988    0.8861 H   0  0  0  0  0  0
    1.8096    0.1608    3.0488 H   0  0  0  0  0  0
    4.0985    3.8146    2.8555 H   0  0  0  0  0  0
    3.4179   -0.7576    4.7008 H   0  0  0  0  0  0
    5.7047    2.8966    4.5053 H   0  0  0  0  0  0
    5.4096   -0.4183    5.8074 H   0  0  0  0  0  0
   -1.1510    4.1658    2.6658 O   0  5  0  0  0  0
  1  2  1  0  0  0
  1  3  1  0  0  0
  1  4  2  0  0  0
  2  5  2  0  0  0
  2 20  1  0  0  0
  3  6  1  0  0  0
  3 13  1  0  0  0
  3 14  1  0  0  0
  6  7  2  0  0  0
  6  8  1  0  0  0
  7  9  1  0  0  0
  7 15  1  0  0  0
  8 10  2  0  0  0
  8 16  1  0  0  0
  9 11  2  0  0  0
  9 17  1  0  0  0
 10 11  1  0  0  0
 10 18  1  0  0  0
 11 12  1  0  0  0
 12 19  1  0  0  0
M  CHG  1  20  -1
M  END
> <i_ionizer_Ion_state_n>
1

> <i_ionizer_Tot_Q>
-1

> <s_ionizer_Ion_centers>
20

> <s_ionizer_Ion_types>
OM

> <s_ionizer_Ion_ctrs_in>
5

> <r_ionizer_Ionization_penalty>
0.00118438

> <r_ionizer_Ionization_penalty_charging>
0.00059219

> <r_ionizer_Ionization_penalty_neutral>
0.00059219

> <i_mmod_Serial_Number-OPLS-2005>
416

> <i_i_glide_lignum>
412

> <r_i_docking_score>
-6.95607

> <r_i_glide_gscore>
-6.95607

> <r_i_glide_lipo>
-0.626675

> <r_i_glide_hbond>
-1.85

> <r_i_glide_metal>
0

> <r_i_glide_eburp>
-2.83065

> <r_i_glide_evdw>
-17.918

> <r_i_glide_ecoul>
-10.1779

> <r_i_glide_erotb>
1.11974

> <r_i_glide_esite>
-0.317258

> <r_i_glide_emodel>
-57.9751

> <r_i_glide_energy>
-28.0959

> <r_i_glide_einternal>
3.9101

> <i_i_glide_confnum>
3

> <i_i_glide_posenum>
677

$$$$
C00637
                    3D
 Structure written by MMmdl.
 21 22  0  0  1  0            999 V2000
    2.9073    0.9383    2.3479 C   0  0  0  0  0  0
    4.0501    0.1577    2.6918 C   0  0  0  0  0  0
    1.9252    0.7800    3.3898 C   0  0  0  0  0  0
    2.9611    1.6627    1.1329 C   0  0  0  0  0  0
    3.7441   -0.4351    3.9000 N   0  0  0  0  0  0
    5.1896    0.0988    1.8689 C   0  0  0  0  0  0
    2.4791   -0.0634    4.3201 C   0  0  0  0  0  0
    0.5672    1.4128    3.4649 C   0  0  0  0  0  0
    4.0984    1.6105    0.3013 C   0  0  0  0  0  0
    5.2120    0.8300    0.6672 C   0  0  0  0  0  0
    0.7616    2.9134    3.2581 C   0  0  0  0  0  0
    0.0950    3.7222    3.8998 O   0  0  0  0  0  0
    2.1153    2.2657    0.8376 H   0  0  0  0  0  0
    4.3422   -1.0555    4.4268 H   0  0  0  0  0  0
    6.0399   -0.5016    2.1563 H   0  0  0  0  0  0
    2.0728   -0.4318    5.2510 H   0  0  0  0  0  0
   -0.0980    1.0201    2.6956 H   0  0  0  0  0  0
    0.1000    1.2332    4.4334 H   0  0  0  0  0  0
    4.1159    2.1720   -0.6213 H   0  0  0  0  0  0
    6.0811    0.7931    0.0268 H   0  0  0  0  0  0
    1.5100    3.2103    2.5223 H   0  0  0  0  0  0
  1  2  1  0  0  0
  1  3  1  0  0  0
  1  4  2  0  0  0
  2  5  1  0  0  0
  2  6  2  0  0  0
  3  7  2  0  0  0
  3  8  1  0  0  0
  4  9  1  0  0  0
  4 13  1  0  0  0
  5  7  1  0  0  0
  5 14  1  0  0  0
  6 10  1  0  0  0
  6 15  1  0  0  0
  7 16  1  0  0  0
  8 11  1  0  0  0
  8 17  1  0  0  0
  8 18  1  0  0  0
  9 10  2  0  0  0
  9 19  1  0  0  0
 10 20  1  0  0  0
 11 12  2  0  0  0
 11 21  1  0  0  0
M  END
> <i_ionizer_Ion_state_n>
0

> <i_ionizer_Tot_Q>
0

> <s_ionizer_Ion_centers>


> <s_ionizer_Ion_types>


> <s_ionizer_Ion_ctrs_in>


> <r_ionizer_Ionization_penalty>
0

> <r_ionizer_Ionization_penalty_charging>
0

> <r_ionizer_Ionization_penalty_neutral>
0

> <i_mmod_Serial_Number-OPLS-2005>
303

> <i_i_glide_lignum>
301

> <r_i_docking_score>
-6.9521

> <r_i_glide_gscore>
-6.9521

> <r_i_glide_lipo>
-0.836322

> <r_i_glide_hbond>
-0.95

> <r_i_glide_metal>
0

> <r_i_glide_eburp>
-2.5

> <r_i_glide_evdw>
-18.2561

> <r_i_glide_ecoul>
-6.44762

> <r_i_glide_erotb>
0

> <r_i_glide_esite>
-0.560534

> <r_i_glide_emodel>
-35.2545

> <r_i_glide_energy>
-24.7037

> <r_i_glide_einternal>
1.13323

> <i_i_glide_confnum>
1

> <i_i_glide_posenum>
880

$$$$
C05647
                    3D
 Structure written by MMmdl.
 28 28  0  0  1  0            999 V2000
    3.4928    1.5590    3.9131 C   0  0  0  0  0  0
    2.8750    2.4227    2.9570 C   0  0  0  0  0  0
    2.8057    0.3863    4.3134 C   0  0  0  0  0  0
    4.8566    1.8214    4.4862 C   0  0  0  0  0  0
    1.5993    2.0838    2.4380 C   0  0  0  0  0  0
    3.5415    3.6082    2.5277 N   0  0  0  0  0  0
    1.5379    0.0696    3.7960 C   0  0  0  0  0  0
    5.7260    0.5993    4.8313 C   0  0  0  0  0  0
    5.3040    2.9491    4.7002 O   0  0  0  0  0  0
    0.9338    0.9191    2.8563 C   0  0  0  0  0  0
    3.0313    4.6517    1.8566 C   0  0  0  0  0  0
    0.9021   -1.0660    4.2040 O   0  0  0  0  0  0
    6.3378    0.6596    6.2437 C   0  0  0  0  0  0
    1.8552    4.7010    1.5058 O   0  0  0  0  0  0
    3.2438   -0.3001    5.0220 H   0  0  0  0  0  0
    1.1084    2.7035    1.7039 H   0  0  0  0  0  0
    4.5122    3.6860    2.8001 H   0  0  0  0  0  0
    5.1150   -0.3000    4.7411 H   0  0  0  0  0  0
    6.5264    0.5231    4.0944 H   0  0  0  0  0  0
   -0.0375    0.6799    2.4487 H   0  0  0  0  0  0
    3.7706    5.4384    1.6505 H   0  0  0  0  0  0
    1.3677   -1.5318    4.8818 H   0  0  0  0  0  0
    7.1333    1.4050    6.2873 H   0  0  0  0  0  0
    5.5830    0.9491    6.9764 H   0  0  0  0  0  0
    7.2922   -0.5697    7.5707 H   0  0  0  0  0  0
    6.1713   -1.3423    6.6421 H   0  0  0  0  0  0
    6.8999   -0.6426    6.6425 N   0  3  0  0  0  0
    7.6257   -0.9127    5.9939 H   0  0  0  0  0  0
  1  2  1  0  0  0
  1  3  2  0  0  0
  1  4  1  0  0  0
  2  5  2  0  0  0
  2  6  1  0  0  0
  3  7  1  0  0  0
  3 15  1  0  0  0
  4  8  1  0  0  0
  4  9  2  0  0  0
  5 10  1  0  0  0
  5 16  1  0  0  0
  6 11  1  0  0  0
  6 17  1  0  0  0
  7 12  1  0  0  0
  7 10  2  0  0  0
  8 13  1  0  0  0
  8 18  1  0  0  0
  8 19  1  0  0  0
 10 20  1  0  0  0
 11 14  2  0  0  0
 11 21  1  0  0  0
 12 22  1  0  0  0
 13 23  1  0  0  0
 13 24  1  0  0  0
 13 27  1  0  0  0
 25 27  1  0  0  0
 26 27  1  0  0  0
 27 28  1  0  0  0
M  CHG  1  27   1
M  END
> <i_ionizer_Ion_state_n>
2

> <i_ionizer_Tot_Q>
1

> <s_ionizer_Ion_centers>
27

> <s_ionizer_Ion_types>
N5

> <s_ionizer_Ion_ctrs_in>
15

> <r_ionizer_Ionization_penalty>
0.000779521

> <r_ionizer_Ionization_penalty_charging>
0.000187331

> <r_ionizer_Ionization_penalty_neutral>
0.00059219

> <i_mmod_Serial_Number-OPLS-2005>
771

> <i_i_glide_lignum>
762

> <r_i_docking_score>
-6.94997

> <r_i_glide_gscore>
-6.94997

> <r_i_glide_lipo>
-0.817817

> <r_i_glide_hbond>
-0.967036

> <r_i_glide_metal>
0

> <r_i_glide_eburp>
-2.20283

> <r_i_glide_evdw>
-28.5064

> <r_i_glide_ecoul>
-8.67011

> <r_i_glide_erotb>
1.29833

> <r_i_glide_esite>
-1.11309

> <r_i_glide_emodel>
-63.1745

> <r_i_glide_energy>
-37.1765

> <r_i_glide_einternal>
2.20064

> <i_i_glide_confnum>
2

> <i_i_glide_posenum>
902

$$$$
C05582
                    3D
 Structure written by MMmdl.
 22 22  0  0  1  0            999 V2000
    2.4236    3.0720    3.0709 C   0  0  0  0  0  0
    2.1432    1.6929    3.1634 C   0  0  0  0  0  0
    3.6349    3.5704    3.5906 C   0  0  0  0  0  0
    1.4230    4.0152    2.4232 C   0  0  0  0  0  0
    3.0535    0.8073    3.7761 C   0  0  0  0  0  0
    4.5609    2.6936    4.1850 C   0  0  0  0  0  0
    0.0865    3.8802    3.1546 C   0  0  0  0  0  0
    4.2818    1.3148    4.2755 C   0  0  0  0  0  0
    2.7026   -0.5225    3.8193 O   0  0  0  0  0  0
    0.1001    3.3125    4.2690 O   0  0  0  0  0  0
    5.2275    0.4961    4.8243 O   0  0  0  0  0  0
    1.4620   -0.8296    4.4398 C   0  0  0  0  0  0
    1.2159    1.3082    2.7642 H   0  0  0  0  0  0
    3.8610    4.6245    3.5216 H   0  0  0  0  0  0
    1.7792    5.0447    2.4778 H   0  0  0  0  0  0
    1.2990    3.7713    1.3674 H   0  0  0  0  0  0
    5.4934    3.0853    4.5639 H   0  0  0  0  0  0
    4.9140   -0.3820    4.9758 H   0  0  0  0  0  0
    1.0422   -1.7234    3.9786 H   0  0  0  0  0  0
    1.5972   -1.0430    5.5001 H   0  0  0  0  0  0
    0.7317   -0.0262    4.3287 H   0  0  0  0  0  0
   -0.9241    4.3534    2.5895 O   0  5  0  0  0  0
  1  2  1  0  0  0
  1  3  2  0  0  0
  1  4  1  0  0  0
  2  5  2  0  0  0
  2 13  1  0  0  0
  3  6  1  0  0  0
  3 14  1  0  0  0
  4  7  1  0  0  0
  4 15  1  0  0  0
  4 16  1  0  0  0
  5  8  1  0  0  0
  5  9  1  0  0  0
  6  8  2  0  0  0
  6 17  1  0  0  0
  7 10  2  0  0  0
  7 22  1  0  0  0
  8 11  1  0  0  0
  9 12  1  0  0  0
 11 18  1  0  0  0
 12 19  1  0  0  0
 12 20  1  0  0  0
 12 21  1  0  0  0
M  CHG  1  22  -1
M  END
> <i_ionizer_Ion_state_n>
1

> <i_ionizer_Tot_Q>
-1

> <s_ionizer_Ion_centers>
22

> <s_ionizer_Ion_types>
OM

> <s_ionizer_Ion_ctrs_in>
10

> <r_ionizer_Ionization_penalty>
0.00118438

> <r_ionizer_Ionization_penalty_charging>
0.00059219

> <r_ionizer_Ionization_penalty_neutral>
0.00059219

> <i_mmod_Serial_Number-OPLS-2005>
750

> <i_i_glide_lignum>
741

> <r_i_docking_score>
-6.94623

> <r_i_glide_gscore>
-6.94623

> <r_i_glide_lipo>
-0.707353

> <r_i_glide_hbond>
-1.4613

> <r_i_glide_metal>
0

> <r_i_glide_eburp>
-2.41538

> <r_i_glide_evdw>
-19.6015

> <r_i_glide_ecoul>
-8.05501

> <r_i_glide_erotb>
0.549673

> <r_i_glide_esite>
-0.538248

> <r_i_glide_emodel>
-55.5406

> <r_i_glide_energy>
-27.6566

> <r_i_glide_einternal>
3.16924

> <i_i_glide_confnum>
2

> <i_i_glide_posenum>
525

$$$$
C03972
                    3D
 Structure written by MMmdl.
 19 19  0  0  1  0            999 V2000
    1.8865    0.8709    2.6396 C   0  0  2  0  0  0
    0.9144    1.8870    3.0309 N   0  0  0  0  0  0
    2.7810    1.3052    1.4606 C   0  0  0  0  0  0
    1.1591   -0.4422    2.3121 C   0  0  0  0  0  0
    1.1060    3.1397    2.8420 C   0  0  0  0  0  0
    3.4163    2.6495    1.8052 C   0  0  0  0  0  0
    1.6997   -1.5007    2.7028 O   0  0  0  0  0  0
    2.3243    3.6922    2.0829 C   0  0  0  0  0  0
    0.1099    4.1755    3.3211 C   0  0  0  0  0  0
   -1.1004    3.9425    3.0990 O   0  0  0  0  0  0
    2.5269    0.6774    3.5021 H   0  0  0  0  0  0
    3.5553    0.5598    1.2751 H   0  0  0  0  0  0
    2.1980    1.3920    0.5419 H   0  0  0  0  0  0
    4.0452    2.5340    2.6891 H   0  0  0  0  0  0
    4.0693    2.9878    1.0004 H   0  0  0  0  0  0
    1.9688    4.0933    1.1330 H   0  0  0  0  0  0
    2.7598    4.5285    2.6312 H   0  0  0  0  0  0
    0.0974   -0.3774    1.6518 O   0  5  0  0  0  0
    0.5755    5.1822    3.9026 O   0  5  0  0  0  0
  1  2  1  0  0  0
  1  3  1  0  0  0
  1  4  1  0  0  0
  1 11  1  0  0  0
  2  5  2  0  0  0
  3  6  1  0  0  0
  3 12  1  0  0  0
  3 13  1  0  0  0
  4  7  2  0  0  0
  4 18  1  0  0  0
  5  8  1  0  0  0
  5  9  1  0  0  0
  6  8  1  0  0  0
  6 14  1  0  0  0
  6 15  1  0  0  0
  8 16  1  0  0  0
  8 17  1  0  0  0
  9 10  2  0  0  0
  9 19  1  0  0  0
M  CHG  2  18  -1  19  -1
M  END
> <i_ionizer_Ion_state_n>
3

> <i_ionizer_Tot_Q>
-2

> <s_ionizer_Ion_centers>
18_19

> <s_ionizer_Ion_types>
OM_OM

> <s_ionizer_Ion_ctrs_in>
7_11

> <r_ionizer_Ionization_penalty>
0.00118438

> <r_ionizer_Ionization_penalty_charging>
0.00118438

> <r_ionizer_Ionization_penalty_neutral>
0

> <s_st_Chirality_1>
1_R_2_4_3_11

> <s_st_EZ_1>
1_2_5_9_E

> <i_mmod_Serial_Number-OPLS-2005>
574

> <i_i_glide_lignum>
568

> <r_i_docking_score>
-6.94487

> <r_i_glide_gscore>
-6.94487

> <r_i_glide_lipo>
-0.32055

> <r_i_glide_hbond>
-1.77556

> <r_i_glide_metal>
0

> <r_i_glide_eburp>
-2.5

> <r_i_glide_evdw>
-16.0783

> <r_i_glide_ecoul>
-6.20376

> <r_i_glide_erotb>
0

> <r_i_glide_esite>
-0.442117

> <r_i_glide_emodel>
-59.1468

> <r_i_glide_energy>
-22.2821

> <r_i_glide_einternal>
0.91896

> <i_i_glide_confnum>
1

> <i_i_glide_posenum>
28

$$$$
C05637
                    3D
 Structure written by MMmdl.
 19 20  0  0  1  0            999 V2000
    3.2072    2.0351    3.7609 C   0  0  0  0  0  0
    1.8233    2.2579    3.4994 C   0  0  0  0  0  0
    3.6108    0.7784    4.2727 C   0  0  0  0  0  0
    4.1556    3.0528    3.5123 C   0  0  0  0  0  0
    1.4305    3.5207    2.9868 C   0  0  0  0  0  0
    0.8990    1.2940    3.7315 N   0  0  0  0  0  0
    2.6349   -0.2067    4.5058 C   0  0  0  0  0  0
    4.9210    0.5006    4.5447 O   0  0  0  0  0  0
    3.7439    4.2966    3.0042 C   0  0  0  0  0  0
    2.3834    4.5291    2.7422 C   0  0  0  0  0  0
    0.1150    3.7852    2.7190 O   0  0  0  0  0  0
    1.2942    0.1016    4.2187 C   0  0  0  0  0  0
    5.2052    2.8888    3.7088 H   0  0  0  0  0  0
    2.8997   -1.1786    4.8955 H   0  0  0  0  0  0
    5.0511   -0.3613    4.9088 H   0  0  0  0  0  0
    4.4719    5.0720    2.8155 H   0  0  0  0  0  0
    2.0737    5.4875    2.3516 H   0  0  0  0  0  0
   -0.0200    4.5974    2.2562 H   0  0  0  0  0  0
    0.5169   -0.6296    4.3848 H   0  0  0  0  0  0
  1  2  2  0  0  0
  1  3  1  0  0  0
  1  4  1  0  0  0
  2  5  1  0  0  0
  2  6  1  0  0  0
  3  7  2  0  0  0
  3  8  1  0  0  0
  4  9  2  0  0  0
  4 13  1  0  0  0
  5 10  2  0  0  0
  5 11  1  0  0  0
  6 12  2  0  0  0
  7 12  1  0  0  0
  7 14  1  0  0  0
  8 15  1  0  0  0
  9 10  1  0  0  0
  9 16  1  0  0  0
 10 17  1  0  0  0
 11 18  1  0  0  0
 12 19  1  0  0  0
M  END
> <i_ionizer_Ion_state_n>
0

> <i_ionizer_Tot_Q>
0

> <s_ionizer_Ion_centers>


> <s_ionizer_Ion_types>


> <s_ionizer_Ion_ctrs_in>


> <r_ionizer_Ionization_penalty>
0.0190381

> <r_ionizer_Ionization_penalty_charging>
0

> <r_ionizer_Ionization_penalty_neutral>
0.0190381

> <i_mmod_Serial_Number-OPLS-2005>
764

> <i_i_glide_lignum>
755

> <r_i_docking_score>
-6.93785

> <r_i_glide_gscore>
-6.93785

> <r_i_glide_lipo>
-0.856165

> <r_i_glide_hbond>
-0.45

> <r_i_glide_metal>
0

> <r_i_glide_eburp>
-2.5

> <r_i_glide_evdw>
-21.9833

> <r_i_glide_ecoul>
-5.85082

> <r_i_glide_erotb>
0

> <r_i_glide_esite>
-0.787946

> <r_i_glide_emodel>
-38.0869

> <r_i_glide_energy>
-27.8341

> <r_i_glide_einternal>
0.0899087

> <i_i_glide_confnum>
1

> <i_i_glide_posenum>
222

$$$$
C05660
                    3D
 Structure written by MMmdl.
 25 26  0  0  1  0            999 V2000
    2.5538    2.5259    3.0309 C   0  0  0  0  0  0
    3.8066    2.2751    3.6596 C   0  0  0  0  0  0
    2.3738    3.9520    2.9397 C   0  0  0  0  0  0
    1.7870    1.4003    2.6484 C   0  0  0  0  0  0
    4.3426    3.5179    3.9299 N   0  0  0  0  0  0
    4.2734    0.9704    3.8927 C   0  0  0  0  0  0
    3.4896    4.5199    3.5017 C   0  0  0  0  0  0
    1.2068    4.6875    2.3471 C   0  0  0  0  0  0
    2.2327    0.0798    2.8711 C   0  0  0  0  0  0
    3.4873   -0.1277    3.4982 C   0  0  0  0  0  0
   -0.0541    4.2504    3.0931 C   0  0  0  0  0  0
    1.3995   -0.9364    2.4550 O   0  0  0  0  0  0
   -1.1531    4.4970    2.5491 O   0  0  0  0  0  0
    0.2476   -0.5910    1.6998 C   0  0  0  0  0  0
    0.8289    1.5615    2.1761 H   0  0  0  0  0  0
    5.2281    3.7005    4.3792 H   0  0  0  0  0  0
    5.2280    0.8113    4.3715 H   0  0  0  0  0  0
    3.7424    5.5619    3.6332 H   0  0  0  0  0  0
    1.3312    5.7670    2.4386 H   0  0  0  0  0  0
    1.1037    4.4666    1.2841 H   0  0  0  0  0  0
    3.8678   -1.1196    3.6884 H   0  0  0  0  0  0
   -0.3008   -1.4980    1.4458 H   0  0  0  0  0  0
   -0.4247    0.0519    2.2694 H   0  0  0  0  0  0
    0.5168   -0.0964    0.7655 H   0  0  0  0  0  0
    0.1026    3.6819    4.1961 O   0  5  0  0  0  0
  1  2  1  0  0  0
  1  3  1  0  0  0
  1  4  2  0  0  0
  2  5  1  0  0  0
  2  6  2  0  0  0
  3  7  2  0  0  0
  3  8  1  0  0  0
  4  9  1  0  0  0
  4 15  1  0  0  0
  5  7  1  0  0  0
  5 16  1  0  0  0
  6 10  1  0  0  0
  6 17  1  0  0  0
  7 18  1  0  0  0
  8 11  1  0  0  0
  8 19  1  0  0  0
  8 20  1  0  0  0
  9 12  1  0  0  0
  9 10  2  0  0  0
 10 21  1  0  0  0
 11 13  2  0  0  0
 11 25  1  0  0  0
 12 14  1  0  0  0
 14 22  1  0  0  0
 14 23  1  0  0  0
 14 24  1  0  0  0
M  CHG  1  25  -1
M  END
> <i_ionizer_Ion_state_n>
1

> <i_ionizer_Tot_Q>
-1

> <s_ionizer_Ion_centers>
25

> <s_ionizer_Ion_types>
OM

> <s_ionizer_Ion_ctrs_in>
13

> <r_ionizer_Ionization_penalty>
0.00059219

> <r_ionizer_Ionization_penalty_charging>
0.00059219

> <r_ionizer_Ionization_penalty_neutral>
0

> <i_mmod_Serial_Number-OPLS-2005>
779

> <i_i_glide_lignum>
770

> <r_i_docking_score>
-6.93377

> <r_i_glide_gscore>
-6.93377

> <r_i_glide_lipo>
-0.912281

> <r_i_glide_hbond>
-1.27118

> <r_i_glide_metal>
0

> <r_i_glide_eburp>
-2.24085

> <r_i_glide_evdw>
-21.9499

> <r_i_glide_ecoul>
-7.29264

> <r_i_glide_erotb>
0.450731

> <r_i_glide_esite>
-0.474935

> <r_i_glide_emodel>
-56.4486

> <r_i_glide_energy>
-29.2425

> <r_i_glide_einternal>
5.13612

> <i_i_glide_confnum>
1

> <i_i_glide_posenum>
786

$$$$
C06714
                    3D
 Structure written by MMmdl.
100102  0  0  1  0            999 V2000
  -10.3244    8.3507   13.3170 N   0  0  0  0  0  0
  -10.2095    8.4770   11.8367 C   0  0  2  0  0  0
   -9.2912    8.0810   14.1839 C   0  0  0  0  0  0
  -11.4400    8.4889   14.1159 C   0  0  0  0  0  0
  -10.1411    9.8320   11.5372 O   0  0  0  0  0  0
  -11.4605    7.9219   11.1511 C   0  0  1  0  0  0
   -9.8666    8.0874   15.4831 C   0  0  0  0  0  0
   -7.9766    7.8593   13.8890 N   0  0  0  0  0  0
  -11.2295    8.3385   15.3973 N   0  0  0  0  0  0
  -10.9580   10.1407   10.4129 C   0  0  1  0  0  0
  -12.1404    9.1836   10.6381 C   0  0  1  0  0  0
  -11.1060    7.0981   10.0592 O   0  0  0  0  0  0
   -8.9686    7.8497   16.5532 C   0  0  0  0  0  0
   -7.2567    7.6472   14.9942 C   0  0  0  0  0  0
  -11.2907   11.6451   10.4500 C   0  0  0  0  0  0
  -12.9166    8.8143    9.5012 O   0  0  0  0  0  0
   -7.6631    7.6329   16.2684 N   0  0  0  0  0  0
   -9.3508    7.8318   17.8368 N   0  0  0  0  0  0
  -10.2035   12.4996   10.1115 O   0  0  0  0  0  0
  -14.6153    8.3036    9.7650 P   0  0  0  0  0  0
   -8.5650   12.0540   10.2997 P   0  0  0  0  0  0
  -15.2344    9.5064   10.5121 O   0  0  0  0  0  0
   -7.8070   13.1377    9.2265 O   0  0  0  0  0  0
   -8.1519   12.3381   11.6937 O   0  0  0  0  0  0
   -6.2320   13.7041    8.9222 P   0  0  0  0  0  0
   -5.3997   12.3310    8.3533 O   0  0  0  0  0  0
   -6.2814   14.7181    7.8440 O   0  0  0  0  0  0
   -5.0937   12.1370    6.9847 C   0  0  0  0  0  0
   -4.3595   10.7918    6.7534 C   0  0  0  0  0  0
   -4.0106   10.6746    5.2307 C   0  0  2  0  0  0
   -3.1005   10.7244    7.6486 C   0  0  0  0  0  0
   -5.3184    9.6495    7.1647 C   0  0  0  0  0  0
   -3.2888    9.3777    4.8184 C   0  0  0  0  0  0
   -3.2353   11.7804    4.8026 O   0  0  0  0  0  0
   -3.1751    9.1541    3.5006 N   0  0  0  0  0  0
   -2.8265    8.6133    5.6664 O   0  0  0  0  0  0
   -2.4609    8.0276    2.9159 C   0  0  0  0  0  0
   -1.4797    8.5116    1.8343 C   0  0  0  0  0  0
   -0.8095    7.3604    1.0776 C   0  0  0  0  0  0
    0.1575    7.6996    0.2132 N   0  0  0  0  0  0
   -1.1616    6.1960    1.2669 O   0  0  0  0  0  0
    0.8510    6.7548   -0.6518 C   0  0  0  0  0  0
    1.4307    5.5942    0.1644 C   0  0  0  0  0  0
    2.9000    6.1149    1.0976 S   0  0  0  0  0  0
    3.2409    4.5748    1.9833 C   0  0  0  0  0  0
    3.5771    3.3792    1.0842 C   0  0  0  0  0  0
    3.2100    4.4874    3.2111 O   0  0  0  0  0  0
    4.1140    2.1372    1.8307 C   0  0  1  0  0  0
    3.0524    1.5337    2.7696 C   0  0  0  0  0  0
    4.4975    1.1525    0.8885 O   0  0  0  0  0  0
    3.6190    0.4949    3.7526 C   0  0  0  0  0  0
    2.5485   -0.0284    4.7314 C   0  0  0  0  0  0
    1.4340   -0.8272    4.0430 C   0  0  0  0  0  0
    0.4137   -1.1295    4.7016 O   0  0  0  0  0  0
   -9.2841    7.9625   11.5740 H   0  0  0  0  0  0
  -12.4178    8.7219   13.7183 H   0  0  0  0  0  0
  -12.0931    7.3617   11.8412 H   0  0  0  0  0  0
  -10.4345    9.8784    9.4923 H   0  0  0  0  0  0
  -12.7744    9.5672   11.4381 H   0  0  0  0  0  0
  -10.3741    6.5736   10.3572 H   0  0  0  0  0  0
   -6.2036    7.4661   14.8373 H   0  0  0  0  0  0
  -12.0770   11.8716    9.7349 H   0  0  0  0  0  0
  -11.6809   11.9237   11.4293 H   0  0  0  0  0  0
   -8.6711    7.6602   18.5626 H   0  0  0  0  0  0
  -10.3183    8.0046   18.0696 H   0  0  0  0  0  0
   -6.0311   12.1644    6.4289 H   0  0  0  0  0  0
   -4.4956   12.9722    6.6188 H   0  0  0  0  0  0
   -4.9425   10.7264    4.6647 H   0  0  0  0  0  0
   -2.5718    9.7777    7.5454 H   0  0  0  0  0  0
   -2.3984   11.5251    7.4151 H   0  0  0  0  0  0
   -3.3614   10.8238    8.7025 H   0  0  0  0  0  0
   -4.8473    8.6693    7.0917 H   0  0  0  0  0  0
   -5.6528    9.7566    8.1970 H   0  0  0  0  0  0
   -6.2063    9.6358    6.5334 H   0  0  0  0  0  0
   -3.1004   11.7106    3.8704 H   0  0  0  0  0  0
   -3.6256    9.7975    2.8662 H   0  0  0  0  0  0
   -1.9240    7.4950    3.7031 H   0  0  0  0  0  0
   -3.1851    7.3309    2.4896 H   0  0  0  0  0  0
   -2.0018    9.1389    1.1107 H   0  0  0  0  0  0
   -0.7096    9.1340    2.2929 H   0  0  0  0  0  0
    0.4284    8.6703    0.1517 H   0  0  0  0  0  0
    0.1566    6.3728   -1.4020 H   0  0  0  0  0  0
    1.6496    7.2731   -1.1850 H   0  0  0  0  0  0
    0.6818    5.2172    0.8622 H   0  0  0  0  0  0
    1.7037    4.7719   -0.4985 H   0  0  0  0  0  0
    2.6607    3.1126    0.5565 H   0  0  0  0  0  0
    4.2883    3.6991    0.3216 H   0  0  0  0  0  0
    4.9897    2.4138    2.4203 H   0  0  0  0  0  0
    2.5934    2.3364    3.3480 H   0  0  0  0  0  0
    2.2493    1.0872    2.1813 H   0  0  0  0  0  0
    3.7265    0.8784    0.4143 H   0  0  0  0  0  0
    4.0431   -0.3413    3.1946 H   0  0  0  0  0  0
    4.4412    0.9436    4.3121 H   0  0  0  0  0  0
    3.0120   -0.6680    5.4832 H   0  0  0  0  0  0
    2.0929    0.8068    5.2644 H   0  0  0  0  0  0
  -15.0994    8.0751    8.3168 O   0  5  0  0  0  0
  -14.4150    7.0269   10.6107 O   0  5  0  0  0  0
   -8.4136   10.6820    9.7634 O   0  5  0  0  0  0
   -5.6288   14.0652   10.2256 O   0  5  0  0  0  0
    1.6281   -1.1233    2.8439 O   0  5  0  0  0  0
  1  2  1  0  0  0
  1  3  1  0  0  0
  1  4  1  0  0  0
  2  5  1  0  0  0
  2  6  1  0  0  0
  2 55  1  0  0  0
  3  7  2  0  0  0
  3  8  1  0  0  0
  4  9  2  0  0  0
  4 56  1  0  0  0
  5 10  1  0  0  0
  6 11  1  0  0  0
  6 12  1  0  0  0
  6 57  1  0  0  0
  7 13  1  0  0  0
  7  9  1  0  0  0
  8 14  2  0  0  0
 10 15  1  0  0  0
 10 11  1  0  0  0
 10 58  1  0  0  0
 11 16  1  0  0  0
 11 59  1  0  0  0
 12 60  1  0  0  0
 13 17  2  0  0  0
 13 18  1  0  0  0
 14 17  1  0  0  0
 14 61  1  0  0  0
 15 19  1  0  0  0
 15 62  1  0  0  0
 15 63  1  0  0  0
 16 20  1  0  0  0
 18 64  1  0  0  0
 18 65  1  0  0  0
 19 21  1  0  0  0
 20 22  2  0  0  0
 20 96  1  0  0  0
 20 97  1  0  0  0
 21 23  1  0  0  0
 21 24  2  0  0  0
 21 98  1  0  0  0
 23 25  1  0  0  0
 25 26  1  0  0  0
 25 27  2  0  0  0
 25 99  1  0  0  0
 26 28  1  0  0  0
 28 29  1  0  0  0
 28 66  1  0  0  0
 28 67  1  0  0  0
 29 30  1  0  0  0
 29 31  1  0  0  0
 29 32  1  0  0  0
 30 33  1  0  0  0
 30 34  1  0  0  0
 30 68  1  0  0  0
 31 69  1  0  0  0
 31 70  1  0  0  0
 31 71  1  0  0  0
 32 72  1  0  0  0
 32 73  1  0  0  0
 32 74  1  0  0  0
 33 35  1  0  0  0
 33 36  2  0  0  0
 34 75  1  0  0  0
 35 37  1  0  0  0
 35 76  1  0  0  0
 37 38  1  0  0  0
 37 77  1  0  0  0
 37 78  1  0  0  0
 38 39  1  0  0  0
 38 79  1  0  0  0
 38 80  1  0  0  0
 39 40  1  0  0  0
 39 41  2  0  0  0
 40 42  1  0  0  0
 40 81  1  0  0  0
 42 43  1  0  0  0
 42 82  1  0  0  0
 42 83  1  0  0  0
 43 44  1  0  0  0
 43 84  1  0  0  0
 43 85  1  0  0  0
 44 45  1  0  0  0
 45 46  1  0  0  0
 45 47  2  0  0  0
 46 48  1  0  0  0
 46 86  1  0  0  0
 46 87  1  0  0  0
 48 49  1  0  0  0
 48 50  1  0  0  0
 48 88  1  0  0  0
 49 51  1  0  0  0
 49 89  1  0  0  0
 49 90  1  0  0  0
 50 91  1  0  0  0
 51 52  1  0  0  0
 51 92  1  0  0  0
 51 93  1  0  0  0
 52 53  1  0  0  0
 52 94  1  0  0  0
 52 95  1  0  0  0
 53 54  2  0  0  0
 53100  1  0  0  0
M  CHG  5  96  -1  97  -1  98  -1  99  -1 100  -1
M  END
> <i_ionizer_Ion_state_n>
62

> <i_ionizer_Tot_Q>
-5

> <s_ionizer_Ion_centers>
96_97_98_99_100

> <s_ionizer_Ion_types>
OM_OM_OM_OM_OM

> <s_ionizer_Ion_ctrs_in>
22_23_26_30_58

> <r_ionizer_Ionization_penalty>
0.000640761

> <r_ionizer_Ionization_penalty_charging>
0.000622025

> <r_ionizer_Ionization_penalty_neutral>
1.87357e-05

> <s_st_Chirality_1>
2_R_5_1_6_55

> <s_st_Chirality_2>
6_R_12_2_11_57

> <s_st_Chirality_3>
10_R_5_11_15_58

> <s_st_Chirality_4>
11_R_16_6_10_59

> <s_st_Chirality_5>
30_R_34_33_29_68

> <s_st_Chirality_6>
48_R_50_46_49_88

> <i_mmod_Serial_Number-OPLS-2005>
888

> <i_i_glide_lignum>
876

> <r_i_docking_score>
-6.92382

> <r_i_glide_gscore>
-6.92382

> <r_i_glide_lipo>
-1.01503

> <r_i_glide_hbond>
-2.20659

> <r_i_glide_metal>
0

> <r_i_glide_eburp>
0.206587

> <r_i_glide_evdw>
-42.9812

> <r_i_glide_ecoul>
-13.6682

> <r_i_glide_erotb>
0.524041

> <r_i_glide_esite>
0.372492

> <r_i_glide_emodel>
-115.052

> <r_i_glide_energy>
-56.6494

> <r_i_glide_einternal>
10.8288

> <i_i_glide_confnum>
836

> <i_i_glide_posenum>
657

$$$$
C00105
                    3D
 Structure written by MMmdl.
 32 33  0  0  1  0            999 V2000
    2.9720   -0.2179    1.2096 C   0  0  2  0  0  0
    4.3489   -0.3267    0.5991 N   0  0  0  0  0  0
    2.5423    1.1072    1.1011 O   0  0  0  0  0  0
    3.0157   -0.5912    2.6989 C   0  0  1  0  0  0
    5.2133    0.7873    0.6438 C   0  0  0  0  0  0
    4.7682   -1.4917   -0.0291 C   0  0  0  0  0  0
    2.0908    1.5810    2.3664 C   0  0  1  0  0  0
    2.9124    0.7710    3.3714 C   0  0  1  0  0  0
    1.9321   -1.4335    3.0450 O   0  0  0  0  0  0
    6.4712    0.6373    0.0597 N   0  0  0  0  0  0
    4.8992    1.8587    1.1597 O   0  0  0  0  0  0
    5.9906   -1.6245   -0.5958 C   0  0  0  0  0  0
    2.2690    3.1067    2.4264 C   0  0  0  0  0  0
    2.3269    0.6924    4.6566 O   0  0  0  0  0  0
    6.9405   -0.5171   -0.5723 C   0  0  0  0  0  0
    1.1297    3.7659    1.9001 O   0  0  0  0  0  0
    8.0707   -0.5411   -1.0544 O   0  0  0  0  0  0
   -0.0519    4.3550    3.1095 P   0  0  0  0  0  0
    0.4997    5.7606    3.4349 O   0  0  0  0  0  0
    2.3127   -0.8535    0.6163 H   0  0  0  0  0  0
    3.9464   -1.0992    2.9561 H   0  0  0  0  0  0
    4.0996   -2.3391   -0.0773 H   0  0  0  0  0  0
    1.0335    1.3218    2.4447 H   0  0  0  0  0  0
    3.9105    1.2010    3.4643 H   0  0  0  0  0  0
    1.9654   -1.5605    3.9824 H   0  0  0  0  0  0
    7.0929    1.4314    0.0925 H   0  0  0  0  0  0
    6.2673   -2.5550   -1.0701 H   0  0  0  0  0  0
    2.5108    3.4322    3.4388 H   0  0  0  0  0  0
    3.1127    3.3983    1.8009 H   0  0  0  0  0  0
    2.8200    0.0389    5.1489 H   0  0  0  0  0  0
   -1.3743    4.3128    2.3120 O   0  5  0  0  0  0
    0.0994    3.2993    4.2257 O   0  5  0  0  0  0
  1  2  1  0  0  0
  1  3  1  0  0  0
  1  4  1  0  0  0
  1 20  1  0  0  0
  2  5  1  0  0  0
  2  6  1  0  0  0
  3  7  1  0  0  0
  4  8  1  0  0  0
  4  9  1  0  0  0
  4 21  1  0  0  0
  5 10  1  0  0  0
  5 11  2  0  0  0
  6 12  2  0  0  0
  6 22  1  0  0  0
  7 13  1  0  0  0
  7  8  1  0  0  0
  7 23  1  0  0  0
  8 14  1  0  0  0
  8 24  1  0  0  0
  9 25  1  0  0  0
 10 15  1  0  0  0
 10 26  1  0  0  0
 12 15  1  0  0  0
 12 27  1  0  0  0
 13 16  1  0  0  0
 13 28  1  0  0  0
 13 29  1  0  0  0
 14 30  1  0  0  0
 15 17  2  0  0  0
 16 18  1  0  0  0
 18 19  2  0  0  0
 18 31  1  0  0  0
 18 32  1  0  0  0
M  CHG  2  31  -1  32  -1
M  END
> <i_ionizer_Ion_state_n>
3

> <i_ionizer_Tot_Q>
-2

> <s_ionizer_Ion_centers>
31_32

> <s_ionizer_Ion_types>
OM_OM

> <s_ionizer_Ion_ctrs_in>
19_20

> <r_ionizer_Ionization_penalty>
1.49178e-05

> <r_ionizer_Ionization_penalty_charging>
1.49178e-05

> <r_ionizer_Ionization_penalty_neutral>
0

> <s_st_Chirality_1>
1_R_3_2_4_20

> <s_st_Chirality_2>
4_R_9_1_8_21

> <s_st_Chirality_3>
7_R_3_8_13_23

> <s_st_Chirality_4>
8_R_14_4_7_24

> <i_mmod_Serial_Number-OPLS-2005>
75

> <i_i_glide_lignum>
74

> <r_i_docking_score>
-6.90965

> <r_i_glide_gscore>
-6.90965

> <r_i_glide_lipo>
-0.773838

> <r_i_glide_hbond>
-1.47739

> <r_i_glide_metal>
0

> <r_i_glide_eburp>
-1.3472

> <r_i_glide_evdw>
-30.1604

> <r_i_glide_ecoul>
-6.26067

> <r_i_glide_erotb>
0.6176

> <r_i_glide_esite>
-0.889929

> <r_i_glide_emodel>
-78.0231

> <r_i_glide_energy>
-36.421

> <r_i_glide_einternal>
10.2277

> <i_i_glide_confnum>
11

> <i_i_glide_posenum>
664

$$$$
C05659
                    3D
 Structure written by MMmdl.
 29 30  0  0  1  0            999 V2000
    1.3738    3.7080    2.5976 C   0  0  0  0  0  0
    2.2007    4.6319    1.8972 C   0  0  0  0  0  0
    2.2003    2.6199    3.0518 C   0  0  0  0  0  0
   -0.0020    4.0218    2.6992 C   0  0  0  0  0  0
    3.4731    4.0996    1.9423 N   0  0  0  0  0  0
    1.6843    5.8076    1.3270 C   0  0  0  0  0  0
    3.4760    2.8994    2.6311 C   0  0  0  0  0  0
    1.7661    1.4146    3.8287 C   0  0  0  0  0  0
   -0.5455    5.1956    2.1351 C   0  0  0  0  0  0
    0.3112    6.0902    1.4453 C   0  0  0  0  0  0
    2.9400    0.4755    4.1384 C   0  0  0  0  0  0
   -1.8997    5.3932    2.2982 O   0  0  0  0  0  0
   -2.4680    6.5904    1.7875 C   0  0  0  0  0  0
   -0.6567    3.3429    3.2248 H   0  0  0  0  0  0
    4.3039    4.5086    1.5388 H   0  0  0  0  0  0
    2.3358    6.4899    0.8015 H   0  0  0  0  0  0
    4.3904    2.3399    2.7657 H   0  0  0  0  0  0
    1.2904    1.7254    4.7599 H   0  0  0  0  0  0
    1.0027    0.8740    3.2676 H   0  0  0  0  0  0
   -0.0610    6.9996    0.9985 H   0  0  0  0  0  0
    3.4047    0.1304    3.2139 H   0  0  0  0  0  0
    3.7071    1.0028    4.7067 H   0  0  0  0  0  0
    3.2931   -1.2950    5.0993 H   0  0  0  0  0  0
    2.0952   -0.3946    5.7862 H   0  0  0  0  0  0
   -3.5378    6.5977    1.9953 H   0  0  0  0  0  0
   -2.0343    7.4718    2.2618 H   0  0  0  0  0  0
   -2.3420    6.6621    0.7063 H   0  0  0  0  0  0
    2.5001   -0.6980    4.9120 N   0  3  0  0  0  0
    1.8106   -1.2129    4.3831 H   0  0  0  0  0  0
  1  2  1  0  0  0
  1  3  1  0  0  0
  1  4  2  0  0  0
  2  5  1  0  0  0
  2  6  2  0  0  0
  3  7  2  0  0  0
  3  8  1  0  0  0
  4  9  1  0  0  0
  4 14  1  0  0  0
  5  7  1  0  0  0
  5 15  1  0  0  0
  6 10  1  0  0  0
  6 16  1  0  0  0
  7 17  1  0  0  0
  8 11  1  0  0  0
  8 18  1  0  0  0
  8 19  1  0  0  0
  9 12  1  0  0  0
  9 10  2  0  0  0
 10 20  1  0  0  0
 11 21  1  0  0  0
 11 22  1  0  0  0
 11 28  1  0  0  0
 12 13  1  0  0  0
 13 25  1  0  0  0
 13 26  1  0  0  0
 13 27  1  0  0  0
 23 28  1  0  0  0
 24 28  1  0  0  0
 28 29  1  0  0  0
M  CHG  1  28   1
M  END
> <i_ionizer_Ion_state_n>
1

> <i_ionizer_Tot_Q>
1

> <s_ionizer_Ion_centers>
28

> <s_ionizer_Ion_types>
N5

> <s_ionizer_Ion_ctrs_in>
13

> <r_ionizer_Ionization_penalty>
0.000187331

> <r_ionizer_Ionization_penalty_charging>
0.000187331

> <r_ionizer_Ionization_penalty_neutral>
0

> <i_mmod_Serial_Number-OPLS-2005>
778

> <i_i_glide_lignum>
769

> <r_i_docking_score>
-6.90807

> <r_i_glide_gscore>
-6.90807

> <r_i_glide_lipo>
-0.950301

> <r_i_glide_hbond>
-1.23509

> <r_i_glide_metal>
0

> <r_i_glide_eburp>
-2.33898

> <r_i_glide_evdw>
-20.8638

> <r_i_glide_ecoul>
-6.99437

> <r_i_glide_erotb>
0.502657

> <r_i_glide_esite>
-0.51782

> <r_i_glide_emodel>
-50.6111

> <r_i_glide_energy>
-27.8581

> <r_i_glide_einternal>
0.396712

> <i_i_glide_confnum>
2

> <i_i_glide_posenum>
397

$$$$
C08060
                    3D
 Structure written by MMmdl.
 22 24  0  0  1  0            999 V2000
    2.1232    1.6478    2.9246 C   0  0  0  0  0  0
    2.7861    2.9222    2.8097 C   0  0  0  0  0  0
    2.8001    0.9241    3.9496 C   0  0  0  0  0  0
    1.0296    1.0233    2.2803 C   0  0  0  0  0  0
    3.8405    2.9241    3.7694 C   0  0  0  0  0  0
    2.6162    4.0734    2.0054 C   0  0  0  0  0  0
    3.8339    1.7100    4.4483 N   0  0  0  0  0  0
    2.3924   -0.3746    4.3108 C   0  0  0  0  0  0
    0.6211   -0.2758    2.6409 C   0  0  0  0  0  0
    4.6885    4.0393    3.9130 C   0  0  0  0  0  0
    3.4640    5.1894    2.1484 C   0  0  0  0  0  0
    1.3015   -0.9749    3.6554 C   0  0  0  0  0  0
    4.4997    5.1731    3.1013 C   0  0  0  0  0  0
    0.5005    1.5510    1.5006 H   0  0  0  0  0  0
    1.8246    4.0963    1.2712 H   0  0  0  0  0  0
    4.4741    1.4432    5.1822 H   0  0  0  0  0  0
    2.9153   -0.9102    5.0894 H   0  0  0  0  0  0
   -0.2163   -0.7362    2.1377 H   0  0  0  0  0  0
    5.4830    4.0257    4.6445 H   0  0  0  0  0  0
    3.3188    6.0595    1.5252 H   0  0  0  0  0  0
    0.9868   -1.9708    3.9305 H   0  0  0  0  0  0
    5.1486    6.0297    3.2094 H   0  0  0  0  0  0
  1  2  1  0  0  0
  1  3  1  0  0  0
  1  4  2  0  0  0
  2  5  2  0  0  0
  2  6  1  0  0  0
  3  7  1  0  0  0
  3  8  2  0  0  0
  4  9  1  0  0  0
  4 14  1  0  0  0
  5 10  1  0  0  0
  5  7  1  0  0  0
  6 11  2  0  0  0
  6 15  1  0  0  0
  7 16  1  0  0  0
  8 12  1  0  0  0
  8 17  1  0  0  0
  9 12  2  0  0  0
  9 18  1  0  0  0
 10 13  2  0  0  0
 10 19  1  0  0  0
 11 13  1  0  0  0
 11 20  1  0  0  0
 12 21  1  0  0  0
 13 22  1  0  0  0
M  END
> <i_ionizer_Ion_state_n>
0

> <i_ionizer_Tot_Q>
0

> <s_ionizer_Ion_centers>


> <s_ionizer_Ion_types>


> <s_ionizer_Ion_ctrs_in>


> <r_ionizer_Ionization_penalty>
0

> <r_ionizer_Ionization_penalty_charging>
0

> <r_ionizer_Ionization_penalty_neutral>
0

> <i_mmod_Serial_Number-OPLS-2005>
910

> <i_i_glide_lignum>
898

> <r_i_docking_score>
-6.90787

> <r_i_glide_gscore>
-6.90787

> <r_i_glide_lipo>
-1.20827

> <r_i_glide_hbond>
0

> <r_i_glide_metal>
0

> <r_i_glide_eburp>
-2.5

> <r_i_glide_evdw>
-22.1609

> <r_i_glide_ecoul>
-0.626175

> <r_i_glide_erotb>
0

> <r_i_glide_esite>
-1.36411

> <r_i_glide_emodel>
-30.0846

> <r_i_glide_energy>
-22.7871

> <r_i_glide_einternal>
0

> <i_i_glide_confnum>
1

> <i_i_glide_posenum>
74

$$$$
C00120
                    3D
 Structure written by MMmdl.
 31 32  0  0  1  0            999 V2000
    3.2585    1.6191    2.2296 C   0  0  1  0  0  0
    3.8524    0.1992    2.2720 C   0  0  1  0  0  0
    3.4638    2.3099    3.5962 C   0  0  1  0  0  0
    4.0097    2.2321    1.1453 N   0  0  0  0  0  0
    4.8235    0.2339    1.1926 N   0  0  0  0  0  0
    4.5187   -0.0444    3.6358 C   0  0  0  0  0  0
    4.9376    1.5660    4.3366 S   0  0  0  0  0  0
    3.5331    3.8493    3.5426 C   0  0  0  0  0  0
    4.8987    1.4156    0.5790 C   0  0  0  0  0  0
    2.1530    4.5217    3.4570 C   0  0  0  0  0  0
    5.6513    1.7000   -0.3480 O   0  0  0  0  0  0
    1.7197    4.7910    2.0087 C   0  0  0  0  0  0
    0.2605    5.2793    1.9142 C   0  0  0  0  0  0
   -0.7243    4.4034    2.6996 C   0  0  0  0  0  0
   -0.2995    3.7458    3.6760 O   0  0  0  0  0  0
    2.2025    1.6045    1.9564 H   0  0  0  0  0  0
    3.1034   -0.5638    2.0561 H   0  0  0  0  0  0
    2.6253    2.0196    4.2307 H   0  0  0  0  0  0
    3.8721    3.1913    0.8627 H   0  0  0  0  0  0
    5.3974   -0.5599    0.9493 H   0  0  0  0  0  0
    5.3949   -0.6906    3.5734 H   0  0  0  0  0  0
    3.8062   -0.5223    4.3088 H   0  0  0  0  0  0
    4.0687    4.2287    4.4138 H   0  0  0  0  0  0
    4.1181    4.1447    2.6707 H   0  0  0  0  0  0
    1.4099    3.8893    3.9441 H   0  0  0  0  0  0
    2.1657    5.4627    4.0077 H   0  0  0  0  0  0
    2.3857    5.5344    1.5678 H   0  0  0  0  0  0
    1.8408    3.8785    1.4229 H   0  0  0  0  0  0
    0.1848    6.3002    2.2899 H   0  0  0  0  0  0
   -0.0574    5.3020    0.8714 H   0  0  0  0  0  0
   -1.9085    4.4098    2.2990 O   0  5  0  0  0  0
  1  2  1  0  0  0
  1  3  1  0  0  0
  1  4  1  0  0  0
  1 16  1  0  0  0
  2  5  1  0  0  0
  2  6  1  0  0  0
  2 17  1  0  0  0
  3  7  1  0  0  0
  3  8  1  0  0  0
  3 18  1  0  0  0
  4  9  1  0  0  0
  4 19  1  0  0  0
  5  9  1  0  0  0
  5 20  1  0  0  0
  6  7  1  0  0  0
  6 21  1  0  0  0
  6 22  1  0  0  0
  8 10  1  0  0  0
  8 23  1  0  0  0
  8 24  1  0  0  0
  9 11  2  0  0  0
 10 12  1  0  0  0
 10 25  1  0  0  0
 10 26  1  0  0  0
 12 13  1  0  0  0
 12 27  1  0  0  0
 12 28  1  0  0  0
 13 14  1  0  0  0
 13 29  1  0  0  0
 13 30  1  0  0  0
 14 15  2  0  0  0
 14 31  1  0  0  0
M  CHG  1  31  -1
M  END
> <i_ionizer_Ion_state_n>
1

> <i_ionizer_Tot_Q>
-1

> <s_ionizer_Ion_centers>
31

> <s_ionizer_Ion_types>
OM

> <s_ionizer_Ion_ctrs_in>
15

> <r_ionizer_Ionization_penalty>
0.00059219

> <r_ionizer_Ionization_penalty_charging>
0.00059219

> <r_ionizer_Ionization_penalty_neutral>
0

> <s_st_Chirality_1>
1_S_4_3_2_16

> <s_st_Chirality_2>
2_R_5_6_1_17

> <s_st_Chirality_3>
3_S_7_1_8_18

> <i_mmod_Serial_Number-OPLS-2005>
86

> <i_i_glide_lignum>
85

> <r_i_docking_score>
-6.90598

> <r_i_glide_gscore>
-6.90598

> <r_i_glide_lipo>
-0.654036

> <r_i_glide_hbond>
-1.55197

> <r_i_glide_metal>
0

> <r_i_glide_eburp>
-2.34465

> <r_i_glide_evdw>
-21.9875

> <r_i_glide_ecoul>
-10.1037

> <r_i_glide_erotb>
1.00564

> <r_i_glide_esite>
-0.59159

> <r_i_glide_emodel>
-62.9204

> <r_i_glide_energy>
-32.0912

> <r_i_glide_einternal>
4.13203

> <i_i_glide_confnum>
11

> <i_i_glide_posenum>
646

$$$$
C00944
                    3D
 Structure written by MMmdl.
 22 22  0  0  1  0            999 V2000
    4.3387    0.1024    0.9855 C   0  0  1  0  0  0
    5.5086    0.6872    0.1699 C   0  0  0  0  0  0
    4.6492    0.2767    2.4874 C   0  0  0  0  0  0
    2.9960    0.7775    0.6051 C   0  0  0  0  0  0
    4.2585   -1.2832    0.6998 O   0  0  0  0  0  0
    6.6132    0.1082    0.2804 O   0  0  0  0  0  0
    3.4995   -0.2153    3.3865 C   0  0  2  0  0  0
    1.8544    0.3799    1.5420 C   0  0  0  0  0  0
    2.1483    0.4481    3.0484 C   0  0  1  0  0  0
    3.8382    0.1000    4.7211 O   0  0  0  0  0  0
    0.7443    0.0797    1.1016 O   0  0  0  0  0  0
    1.1221   -0.2065    3.7723 O   0  0  0  0  0  0
    5.5691   -0.2494    2.7461 H   0  0  0  0  0  0
    4.8331    1.3325    2.6918 H   0  0  0  0  0  0
    3.0881    1.8628    0.6550 H   0  0  0  0  0  0
    2.7244    0.5307   -0.4219 H   0  0  0  0  0  0
    4.1011   -1.3659   -0.2299 H   0  0  0  0  0  0
    3.4086   -1.2987    3.2975 H   0  0  0  0  0  0
    2.1672    1.5002    3.3345 H   0  0  0  0  0  0
    4.3080   -0.6373    5.0818 H   0  0  0  0  0  0
    1.4101   -0.3038    4.6676 H   0  0  0  0  0  0
    5.3010    1.7002   -0.5347 O   0  5  0  0  0  0
  1  2  1  0  0  0
  1  3  1  0  0  0
  1  4  1  0  0  0
  1  5  1  0  0  0
  2  6  2  0  0  0
  2 22  1  0  0  0
  3  7  1  0  0  0
  3 13  1  0  0  0
  3 14  1  0  0  0
  4  8  1  0  0  0
  4 15  1  0  0  0
  4 16  1  0  0  0
  5 17  1  0  0  0
  7  9  1  0  0  0
  7 10  1  0  0  0
  7 18  1  0  0  0
  8 11  2  0  0  0
  8  9  1  0  0  0
  9 12  1  0  0  0
  9 19  1  0  0  0
 10 20  1  0  0  0
 12 21  1  0  0  0
M  CHG  1  22  -1
M  END
> <i_ionizer_Ion_state_n>
1

> <i_ionizer_Tot_Q>
-1

> <s_ionizer_Ion_centers>
22

> <s_ionizer_Ion_types>
OM

> <s_ionizer_Ion_ctrs_in>
6

> <r_ionizer_Ionization_penalty>
0.00059219

> <r_ionizer_Ionization_penalty_charging>
0.00059219

> <r_ionizer_Ionization_penalty_neutral>
0

> <s_st_Chirality_1>
1_R_5_2_4_3

> <s_st_Chirality_2>
7_R_10_9_3_18

> <s_st_Chirality_3>
9_S_12_8_7_19

> <i_mmod_Serial_Number-OPLS-2005>
362

> <i_i_glide_lignum>
358

> <r_i_docking_score>
-6.89906

> <r_i_glide_gscore>
-6.89906

> <r_i_glide_lipo>
-0.487717

> <r_i_glide_hbond>
-1.00249

> <r_i_glide_metal>
0

> <r_i_glide_eburp>
-2.35495

> <r_i_glide_evdw>
-20.9806

> <r_i_glide_ecoul>
-11.7329

> <r_i_glide_erotb>
0

> <r_i_glide_esite>
-0.202173

> <r_i_glide_emodel>
-50.0527

> <r_i_glide_energy>
-32.7134

> <r_i_glide_einternal>
2.06902

> <i_i_glide_confnum>
1

> <i_i_glide_posenum>
411

$$$$
C04244
                    3D
 Structure written by MMmdl.
 30 31  0  0  1  0            999 V2000
    3.6565    2.8492    3.6945 C   0  0  0  0  0  0
    2.5599    2.0839    3.4993 C   0  0  0  0  0  0
    3.6685    4.1940    3.3801 N   0  0  0  0  0  0
    4.8421    2.3525    4.2399 N   0  0  0  0  0  0
    1.4114    2.6222    2.9476 N   0  0  0  0  0  0
    2.5927    0.6679    3.8761 C   0  0  0  0  0  0
    2.4504    4.9002    2.9931 C   0  0  0  0  0  0
    4.8823    1.1006    4.5749 C   0  0  0  0  0  0
    1.3863    3.9561    2.3475 C   0  0  2  0  0  0
    3.7740    0.2590    4.3999 N   0  0  0  0  0  0
    1.6496   -0.1104    3.7416 O   0  0  0  0  0  0
    5.9696    0.4539    5.1242 N   0  0  0  0  0  0
   -0.0384    4.5530    2.3803 C   0  0  0  0  0  0
   -0.3661    5.7403    1.4509 C   0  0  1  0  0  0
   -0.9275    4.0972    3.1002 O   0  0  0  0  0  0
   -1.8183    6.2265    1.5942 C   0  0  0  0  0  0
    0.4988    6.8385    1.6729 O   0  0  0  0  0  0
    4.4915    4.7432    3.5823 H   0  0  0  0  0  0
    0.5972    2.0329    2.8496 H   0  0  0  0  0  0
    2.0659    5.3569    3.9059 H   0  0  0  0  0  0
    2.7017    5.7160    2.3146 H   0  0  0  0  0  0
    1.6909    3.8209    1.3095 H   0  0  0  0  0  0
    3.8473   -0.7087    4.6749 H   0  0  0  0  0  0
    6.8458    0.9187    5.3141 H   0  0  0  0  0  0
    5.9796   -0.5230    5.3782 H   0  0  0  0  0  0
   -0.2100    5.4035    0.4256 H   0  0  0  0  0  0
   -2.0202    7.0558    0.9155 H   0  0  0  0  0  0
   -2.5315    5.4360    1.3579 H   0  0  0  0  0  0
   -2.0248    6.5715    2.6082 H   0  0  0  0  0  0
    0.2289    7.5582    1.1231 H   0  0  0  0  0  0
  1  2  2  0  0  0
  1  3  1  0  0  0
  1  4  1  0  0  0
  2  5  1  0  0  0
  2  6  1  0  0  0
  3  7  1  0  0  0
  3 18  1  0  0  0
  4  8  2  0  0  0
  5  9  1  0  0  0
  5 19  1  0  0  0
  6 10  1  0  0  0
  6 11  2  0  0  0
  7  9  1  0  0  0
  7 20  1  0  0  0
  7 21  1  0  0  0
  8 12  1  0  0  0
  8 10  1  0  0  0
  9 13  1  0  0  0
  9 22  1  0  0  0
 10 23  1  0  0  0
 12 24  1  0  0  0
 12 25  1  0  0  0
 13 14  1  0  0  0
 13 15  2  0  0  0
 14 16  1  0  0  0
 14 17  1  0  0  0
 14 26  1  0  0  0
 16 27  1  0  0  0
 16 28  1  0  0  0
 16 29  1  0  0  0
 17 30  1  0  0  0
M  END
> <i_ionizer_Ion_state_n>
0

> <i_ionizer_Tot_Q>
0

> <s_ionizer_Ion_centers>


> <s_ionizer_Ion_types>


> <s_ionizer_Ion_ctrs_in>


> <r_ionizer_Ionization_penalty>
0

> <r_ionizer_Ionization_penalty_charging>
0

> <r_ionizer_Ionization_penalty_neutral>
0

> <s_st_Chirality_1>
9_R_5_13_7_22

> <s_st_Chirality_2>
14_R_17_13_16_26

> <i_mmod_Serial_Number-OPLS-2005>
584

> <i_i_glide_lignum>
578

> <r_i_docking_score>
-6.88366

> <r_i_glide_gscore>
-6.88366

> <r_i_glide_lipo>
-0.633315

> <r_i_glide_hbond>
-1.56279

> <r_i_glide_metal>
0

> <r_i_glide_eburp>
-1.97549

> <r_i_glide_evdw>
-30.3543

> <r_i_glide_ecoul>
-10.1539

> <r_i_glide_erotb>
0.690018

> <r_i_glide_esite>
0.0416463

> <r_i_glide_emodel>
-64.5263

> <r_i_glide_energy>
-40.5082

> <r_i_glide_einternal>
1.35801

> <i_i_glide_confnum>
3

> <i_i_glide_posenum>
672

$$$$
C00527
                    3D
 Structure written by MMmdl.
 93 95  0  0  1  0            999 V2000
   -1.7294   10.2248   12.9540 N   0  0  0  0  0  0
   -2.5756    9.2459   13.7069 C   0  0  1  0  0  0
   -0.7941   11.0644   13.5166 C   0  0  0  0  0  0
   -1.6819   10.4963   11.6011 C   0  0  0  0  0  0
   -3.6749    9.9879   14.4816 C   0  0  1  0  0  0
   -3.2165    8.4123   12.7794 O   0  0  0  0  0  0
   -0.2627   11.8297   12.4438 C   0  0  0  0  0  0
   -0.4431   11.1777   14.8310 N   0  0  0  0  0  0
   -0.8403   11.4313   11.2469 N   0  0  0  0  0  0
   -4.8755    9.0927   14.2445 C   0  0  1  0  0  0
   -3.4564   10.0791   15.8733 O   0  0  0  0  0  0
   -4.6322    8.6124   12.8075 C   0  0  1  0  0  0
    0.7050   12.8013   12.8012 C   0  0  0  0  0  0
    0.4760   12.1296   15.0138 C   0  0  0  0  0  0
   -4.7808    7.9998   15.1585 O   0  0  0  0  0  0
   -5.0123    9.6331   11.7193 C   0  0  0  0  0  0
    1.0507   12.9238   14.1040 N   0  0  0  0  0  0
    1.2932   13.6084   11.9087 N   0  0  0  0  0  0
   -5.9270    6.6333   14.9575 P   0  0  0  0  0  0
   -6.4055    9.6519   11.4851 O   0  0  0  0  0  0
   -5.4879    5.9987   13.6197 O   0  0  0  0  0  0
   -7.0933   10.7052   10.3365 P   0  0  0  0  0  0
   -5.8294   11.1101    9.2665 O   0  0  0  0  0  0
   -8.1239    9.9569    9.5802 O   0  0  0  0  0  0
   -4.1564   11.4160    9.3659 P   0  0  0  0  0  0
   -3.7788   12.0877    7.8445 O   0  0  0  0  0  0
   -3.9143   12.4536   10.3934 O   0  0  0  0  0  0
   -3.3567   11.2890    6.7526 C   0  0  0  0  0  0
   -4.4860   11.0755    5.7090 C   0  0  0  0  0  0
   -3.8324   10.6708    4.3438 C   0  0  2  0  0  0
   -5.4555    9.9939    6.2354 C   0  0  0  0  0  0
   -5.2756   12.3947    5.5446 C   0  0  0  0  0  0
   -3.1018    9.3143    4.3384 C   0  0  0  0  0  0
   -2.9311   11.6698    3.9000 O   0  0  0  0  0  0
   -2.7212    8.8482    3.1396 N   0  0  0  0  0  0
   -2.8646    8.7194    5.3903 O   0  0  0  0  0  0
   -1.9298    7.6418    2.9399 C   0  0  0  0  0  0
   -0.9616    7.8190    1.7573 C   0  0  0  0  0  0
    0.0021    6.6401    1.5871 C   0  0  0  0  0  0
    1.1722    6.9117    0.9920 N   0  0  0  0  0  0
   -0.3055    5.5141    1.9788 O   0  0  0  0  0  0
    2.1787    5.9098    0.6675 C   0  0  0  0  0  0
    2.5117    5.0562    1.8963 C   0  0  0  0  0  0
    4.0340    4.0981    1.6403 S   0  0  0  0  0  0
    4.0912    3.2200    3.2212 C   0  0  0  0  0  0
    3.7734    1.7248    3.1345 C   0  0  0  0  0  0
    4.3642    3.7749    4.2857 O   0  0  0  0  0  0
    3.5415    1.0582    4.5032 C   0  0  0  0  0  0
    3.0487   -0.3963    4.3644 C   0  0  0  0  0  0
    1.7760   -0.5289    3.5177 C   0  0  0  0  0  0
    1.6899   -1.4751    2.7032 O   0  0  0  0  0  0
   -1.8837    8.6772   14.3293 H   0  0  0  0  0  0
   -2.2978    9.9875   10.8740 H   0  0  0  0  0  0
   -3.8358   10.9760   14.0507 H   0  0  0  0  0  0
   -5.8186    9.6250   14.3741 H   0  0  0  0  0  0
   -2.6519   10.5696   15.9795 H   0  0  0  0  0  0
   -5.1465    7.6776   12.5915 H   0  0  0  0  0  0
    0.7934   12.2807   16.0349 H   0  0  0  0  0  0
   -4.7020   10.6339   12.0015 H   0  0  0  0  0  0
   -4.4859    9.3912   10.7958 H   0  0  0  0  0  0
    1.9724   14.2886   12.2156 H   0  0  0  0  0  0
    1.0331   13.5454   10.9348 H   0  0  0  0  0  0
   -2.4836   11.7438    6.2826 H   0  0  0  0  0  0
   -3.0192   10.3359    7.1606 H   0  0  0  0  0  0
   -4.6214   10.6243    3.5911 H   0  0  0  0  0  0
   -6.3087    9.8438    5.5749 H   0  0  0  0  0  0
   -5.8590   10.2814    7.2049 H   0  0  0  0  0  0
   -4.9607    9.0310    6.3635 H   0  0  0  0  0  0
   -6.1102   12.2920    4.8510 H   0  0  0  0  0  0
   -4.6360   13.1971    5.1761 H   0  0  0  0  0  0
   -5.7027   12.7238    6.4923 H   0  0  0  0  0  0
   -2.7329   11.5135    2.9898 H   0  0  0  0  0  0
   -3.0100    9.3553    2.3157 H   0  0  0  0  0  0
   -1.3749    7.4212    3.8537 H   0  0  0  0  0  0
   -2.6026    6.8015    2.7589 H   0  0  0  0  0  0
   -1.5234    7.9389    0.8302 H   0  0  0  0  0  0
   -0.3820    8.7332    1.8951 H   0  0  0  0  0  0
    1.3769    7.8702    0.7492 H   0  0  0  0  0  0
    1.8102    5.2746   -0.1397 H   0  0  0  0  0  0
    3.0789    6.4070    0.3024 H   0  0  0  0  0  0
    2.6371    5.6947    2.7719 H   0  0  0  0  0  0
    1.6910    4.3692    2.1071 H   0  0  0  0  0  0
    2.8887    1.5995    2.5093 H   0  0  0  0  0  0
    4.5964    1.2304    2.6176 H   0  0  0  0  0  0
    4.4694    1.0756    5.0778 H   0  0  0  0  0  0
    2.8116    1.6384    5.0708 H   0  0  0  0  0  0
    3.8269   -1.0108    3.9106 H   0  0  0  0  0  0
    2.8490   -0.8169    5.3504 H   0  0  0  0  0  0
   -5.6500    5.8025   16.2300 O   0  5  0  0  0  0
   -7.2791    7.3797   14.9305 O   0  5  0  0  0  0
   -7.4846   11.9453   11.0447 O   0  5  0  0  0  0
   -3.4670   10.1096    9.4776 O   0  5  0  0  0  0
    0.8956    0.3382    3.7068 O   0  5  0  0  0  0
  1  2  1  0  0  0
  1  3  1  0  0  0
  1  4  1  0  0  0
  2  5  1  0  0  0
  2  6  1  0  0  0
  2 52  1  0  0  0
  3  7  2  0  0  0
  3  8  1  0  0  0
  4  9  2  0  0  0
  4 53  1  0  0  0
  5 10  1  0  0  0
  5 11  1  0  0  0
  5 54  1  0  0  0
  6 12  1  0  0  0
  7 13  1  0  0  0
  7  9  1  0  0  0
  8 14  2  0  0  0
 10 15  1  0  0  0
 10 12  1  0  0  0
 10 55  1  0  0  0
 11 56  1  0  0  0
 12 16  1  0  0  0
 12 57  1  0  0  0
 13 17  2  0  0  0
 13 18  1  0  0  0
 14 17  1  0  0  0
 14 58  1  0  0  0
 15 19  1  0  0  0
 16 20  1  0  0  0
 16 59  1  0  0  0
 16 60  1  0  0  0
 18 61  1  0  0  0
 18 62  1  0  0  0
 19 21  2  0  0  0
 19 89  1  0  0  0
 19 90  1  0  0  0
 20 22  1  0  0  0
 22 23  1  0  0  0
 22 24  2  0  0  0
 22 91  1  0  0  0
 23 25  1  0  0  0
 25 26  1  0  0  0
 25 27  2  0  0  0
 25 92  1  0  0  0
 26 28  1  0  0  0
 28 29  1  0  0  0
 28 63  1  0  0  0
 28 64  1  0  0  0
 29 30  1  0  0  0
 29 31  1  0  0  0
 29 32  1  0  0  0
 30 33  1  0  0  0
 30 34  1  0  0  0
 30 65  1  0  0  0
 31 66  1  0  0  0
 31 67  1  0  0  0
 31 68  1  0  0  0
 32 69  1  0  0  0
 32 70  1  0  0  0
 32 71  1  0  0  0
 33 35  1  0  0  0
 33 36  2  0  0  0
 34 72  1  0  0  0
 35 37  1  0  0  0
 35 73  1  0  0  0
 37 38  1  0  0  0
 37 74  1  0  0  0
 37 75  1  0  0  0
 38 39  1  0  0  0
 38 76  1  0  0  0
 38 77  1  0  0  0
 39 40  1  0  0  0
 39 41  2  0  0  0
 40 42  1  0  0  0
 40 78  1  0  0  0
 42 43  1  0  0  0
 42 79  1  0  0  0
 42 80  1  0  0  0
 43 44  1  0  0  0
 43 81  1  0  0  0
 43 82  1  0  0  0
 44 45  1  0  0  0
 45 46  1  0  0  0
 45 47  2  0  0  0
 46 48  1  0  0  0
 46 83  1  0  0  0
 46 84  1  0  0  0
 48 49  1  0  0  0
 48 85  1  0  0  0
 48 86  1  0  0  0
 49 50  1  0  0  0
 49 87  1  0  0  0
 49 88  1  0  0  0
 50 51  2  0  0  0
 50 93  1  0  0  0
M  CHG  5  89  -1  90  -1  91  -1  92  -1  93  -1
M  END
> <i_ionizer_Ion_state_n>
62

> <i_ionizer_Tot_Q>
-5

> <s_ionizer_Ion_centers>
89_90_91_92_93

> <s_ionizer_Ion_types>
OM_OM_OM_OM_OM

> <s_ionizer_Ion_ctrs_in>
21_22_26_30_55

> <r_ionizer_Ionization_penalty>
0.000640761

> <r_ionizer_Ionization_penalty_charging>
0.000622025

> <r_ionizer_Ionization_penalty_neutral>
1.87357e-05

> <s_st_Chirality_1>
2_R_6_1_5_52

> <s_st_Chirality_2>
5_R_11_2_10_54

> <s_st_Chirality_3>
10_R_15_5_12_55

> <s_st_Chirality_4>
12_R_6_10_16_57

> <s_st_Chirality_5>
30_R_34_33_29_65

> <i_mmod_Serial_Number-OPLS-2005>
269

> <i_i_glide_lignum>
267

> <r_i_docking_score>
-6.87687

> <r_i_glide_gscore>
-6.87687

> <r_i_glide_lipo>
-0.851938

> <r_i_glide_hbond>
-2.00137

> <r_i_glide_metal>
0

> <r_i_glide_eburp>
0.00137274

> <r_i_glide_evdw>
-49.4806

> <r_i_glide_ecoul>
-9.47605

> <r_i_glide_erotb>
0.538607

> <r_i_glide_esite>
0.342512

> <r_i_glide_emodel>
-99.3979

> <r_i_glide_energy>
-58.9566

> <r_i_glide_einternal>
15.8183

> <i_i_glide_confnum>
306

> <i_i_glide_posenum>
858

$$$$
C04874
                    3D
 Structure written by MMmdl.
 31 32  0  0  1  0            999 V2000
    2.2421    3.9840    1.2675 C   0  0  0  0  0  0
    1.3970    3.3682    2.1357 C   0  0  0  0  0  0
    3.3019    3.3090    0.6985 N   0  0  0  0  0  0
    2.1142    5.3196    0.8837 N   0  0  0  0  0  0
    1.5696    2.0213    2.4957 N   0  0  0  0  0  0
    0.2884    4.1464    2.7045 C   0  0  0  0  0  0
    3.5246    1.8964    0.9805 C   0  0  0  0  0  0
    1.1364    6.0053    1.3852 C   0  0  0  0  0  0
    2.5231    1.3239    2.0019 C   0  0  0  0  0  0
    0.2286    5.4339    2.2861 N   0  0  0  0  0  0
   -0.5405    3.7040    3.4987 O   0  0  0  0  0  0
    0.8665    7.3304    1.1142 N   0  0  0  0  0  0
    2.7168   -0.1349    2.4144 C   0  0  2  0  0  0
    2.9882   -0.3095    3.9310 C   0  0  1  0  0  0
    3.6993   -0.8041    1.6427 O   0  0  0  0  0  0
    4.2338    0.4576    4.4116 C   0  0  0  0  0  0
    1.8763    0.1105    4.7007 O   0  0  0  0  0  0
    5.4034   -0.1473    3.8983 O   0  0  0  0  0  0
    3.9171    3.7787    0.0502 H   0  0  0  0  0  0
    3.4459    1.3460    0.0431 H   0  0  0  0  0  0
    4.5418    1.7681    1.3494 H   0  0  0  0  0  0
   -0.5186    6.0034    2.6533 H   0  0  0  0  0  0
    1.4270    7.8869    0.4850 H   0  0  0  0  0  0
    0.0981    7.8464    1.5169 H   0  0  0  0  0  0
    1.7812   -0.6510    2.1931 H   0  0  0  0  0  0
    3.1408   -1.3725    4.1265 H   0  0  0  0  0  0
    3.4751   -0.7156    0.7288 H   0  0  0  0  0  0
    4.2053    1.4871    4.0533 H   0  0  0  0  0  0
    4.2831    0.4965    5.5006 H   0  0  0  0  0  0
    2.0025   -0.2028    5.5840 H   0  0  0  0  0  0
    5.4672   -1.0236    4.2471 H   0  0  0  0  0  0
  1  2  2  0  0  0
  1  3  1  0  0  0
  1  4  1  0  0  0
  2  5  1  0  0  0
  2  6  1  0  0  0
  3  7  1  0  0  0
  3 19  1  0  0  0
  4  8  2  0  0  0
  5  9  2  0  0  0
  6 10  1  0  0  0
  6 11  2  0  0  0
  7  9  1  0  0  0
  7 20  1  0  0  0
  7 21  1  0  0  0
  8 12  1  0  0  0
  8 10  1  0  0  0
  9 13  1  0  0  0
 10 22  1  0  0  0
 12 23  1  0  0  0
 12 24  1  0  0  0
 13 14  1  0  0  0
 13 15  1  0  0  0
 13 25  1  0  0  0
 14 16  1  0  0  0
 14 17  1  0  0  0
 14 26  1  0  0  0
 15 27  1  0  0  0
 16 18  1  0  0  0
 16 28  1  0  0  0
 16 29  1  0  0  0
 17 30  1  0  0  0
 18 31  1  0  0  0
M  END
> <i_ionizer_Ion_state_n>
0

> <i_ionizer_Tot_Q>
0

> <s_ionizer_Ion_centers>


> <s_ionizer_Ion_types>


> <s_ionizer_Ion_ctrs_in>


> <r_ionizer_Ionization_penalty>
0

> <r_ionizer_Ionization_penalty_charging>
0

> <r_ionizer_Ionization_penalty_neutral>
0

> <s_st_Chirality_1>
13_R_15_14_9_25

> <s_st_Chirality_2>
14_R_17_13_16_26

> <s_st_EZ_1>
2_5_9_13_E

> <i_mmod_Serial_Number-OPLS-2005>
619

> <i_i_glide_lignum>
612

> <r_i_docking_score>
-6.87607

> <r_i_glide_gscore>
-6.87607

> <r_i_glide_lipo>
-0.642604

> <r_i_glide_hbond>
-1.69752

> <r_i_glide_metal>
0

> <r_i_glide_eburp>
-1.85428

> <r_i_glide_evdw>
-26.1953

> <r_i_glide_ecoul>
-12.7901

> <r_i_glide_erotb>
0.926452

> <r_i_glide_esite>
-0.233483

> <r_i_glide_emodel>
-65.1255

> <r_i_glide_energy>
-38.9855

> <r_i_glide_einternal>
1.5005

> <i_i_glide_confnum>
4

> <i_i_glide_posenum>
93

$$$$
C00159
                    3D
 Structure written by MMmdl.
 24 24  0  0  1  0            999 V2000
    4.4325    0.8956    3.4716 C   0  0  2  0  0  0
    3.3826   -0.2416    3.5527 C   0  0  2  0  0  0
    4.9007    0.9959    2.1151 O   0  0  0  0  0  0
    5.6623    0.6451    4.3603 C   0  0  0  0  0  0
    2.2700   -0.0231    2.5075 C   0  0  1  0  0  0
    2.8189   -0.3001    4.8594 O   0  0  0  0  0  0
    3.9024    1.3146    1.1725 C   0  0  2  0  0  0
    5.2975    0.5015    5.7286 O   0  0  0  0  0  0
    2.8786    0.1703    1.1045 C   0  0  1  0  0  0
    1.3359   -1.1009    2.5100 O   0  0  0  0  0  0
    4.5119    1.5257   -0.0834 O   0  0  0  0  0  0
    3.5445   -1.0098    0.6563 O   0  0  0  0  0  0
    3.9710    1.8424    3.7590 H   0  0  0  0  0  0
    3.8780   -1.1931    3.3536 H   0  0  0  0  0  0
    6.1780   -0.2628    4.0466 H   0  0  0  0  0  0
    6.3751    1.4646    4.2635 H   0  0  0  0  0  0
    1.7257    0.8858    2.7694 H   0  0  0  0  0  0
    3.3989   -0.8458    5.4093 H   0  0  0  0  0  0
    3.4357    2.2451    1.5237 H   0  0  0  0  0  0
    5.0881   -0.4276    5.8961 H   0  0  0  0  0  0
    2.0986    0.4295    0.3874 H   0  0  0  0  0  0
    0.7192   -0.9738    3.2438 H   0  0  0  0  0  0
    4.5653    0.6689   -0.5289 H   0  0  0  0  0  0
    3.6355   -0.9516   -0.3053 H   0  0  0  0  0  0
  1  2  1  0  0  0
  1  3  1  0  0  0
  1  4  1  0  0  0
  1 13  1  0  0  0
  2  5  1  0  0  0
  2  6  1  0  0  0
  2 14  1  0  0  0
  3  7  1  0  0  0
  4  8  1  0  0  0
  4 15  1  0  0  0
  4 16  1  0  0  0
  5  9  1  0  0  0
  5 10  1  0  0  0
  5 17  1  0  0  0
  6 18  1  0  0  0
  7 11  1  0  0  0
  7  9  1  0  0  0
  7 19  1  0  0  0
  8 20  1  0  0  0
  9 12  1  0  0  0
  9 21  1  0  0  0
 10 22  1  0  0  0
 11 23  1  0  0  0
 12 24  1  0  0  0
M  END
> <i_ionizer_Ion_state_n>
0

> <i_ionizer_Tot_Q>
0

> <s_ionizer_Ion_centers>


> <s_ionizer_Ion_types>


> <s_ionizer_Ion_ctrs_in>


> <r_ionizer_Ionization_penalty>
0

> <r_ionizer_Ionization_penalty_charging>
0

> <r_ionizer_Ionization_penalty_neutral>
0

> <s_st_Chirality_1>
1_R_3_2_4_13

> <s_st_Chirality_2>
2_R_6_5_1_14

> <s_st_Chirality_3>
5_S_10_9_2_17

> <s_st_Chirality_4>
9_S_12_7_5_21

> <s_st_Chirality_5>
7_R_3_11_9_19

> <i_mmod_Serial_Number-OPLS-2005>
115

> <i_i_glide_lignum>
113

> <r_i_docking_score>
-6.8622

> <r_i_glide_gscore>
-6.8622

> <r_i_glide_lipo>
-0.495262

> <r_i_glide_hbond>
-1.34316

> <r_i_glide_metal>
0

> <r_i_glide_eburp>
-2.42304

> <r_i_glide_evdw>
-14.5598

> <r_i_glide_ecoul>
-16.6427

> <r_i_glide_erotb>
0.554751

> <r_i_glide_esite>
-0.326431

> <r_i_glide_emodel>
-42.0225

> <r_i_glide_energy>
-31.2025

> <r_i_glide_einternal>
0.745814

> <i_i_glide_confnum>
1

> <i_i_glide_posenum>
3

$$$$
C05639
                    3D
 Structure written by MMmdl.
 19 20  0  0  1  0            999 V2000
    4.1034    2.9976    3.3655 C   0  0  0  0  0  0
    3.3119    2.1759    2.5133 C   0  0  0  0  0  0
    4.1613    4.3872    3.1040 C   0  0  0  0  0  0
    4.8124    2.4272    4.4471 C   0  0  0  0  0  0
    3.2560    0.7907    2.7764 C   0  0  0  0  0  0
    2.6205    2.6871    1.4695 N   0  0  0  0  0  0
    3.4365    4.9036    2.0145 C   0  0  0  0  0  0
    4.9009    5.2339    3.8810 O   0  0  0  0  0  0
    4.7420    1.0434    4.6905 C   0  0  0  0  0  0
    3.9626    0.2242    3.8538 C   0  0  0  0  0  0
    2.6830    4.0125    1.2298 C   0  0  0  0  0  0
    5.4294    0.5011    5.7366 O   0  0  0  0  0  0
    5.4145    3.0458    5.0968 H   0  0  0  0  0  0
    2.6606    0.1521    2.1404 H   0  0  0  0  0  0
    3.4525    5.9576    1.7791 H   0  0  0  0  0  0
    4.9016    6.1243    3.5655 H   0  0  0  0  0  0
    3.9026   -0.8393    4.0332 H   0  0  0  0  0  0
    2.1143    4.3738    0.3857 H   0  0  0  0  0  0
    5.3064   -0.4318    5.8224 H   0  0  0  0  0  0
  1  2  2  0  0  0
  1  3  1  0  0  0
  1  4  1  0  0  0
  2  5  1  0  0  0
  2  6  1  0  0  0
  3  7  2  0  0  0
  3  8  1  0  0  0
  4  9  2  0  0  0
  4 13  1  0  0  0
  5 10  2  0  0  0
  5 14  1  0  0  0
  6 11  2  0  0  0
  7 11  1  0  0  0
  7 15  1  0  0  0
  8 16  1  0  0  0
  9 12  1  0  0  0
  9 10  1  0  0  0
 10 17  1  0  0  0
 11 18  1  0  0  0
 12 19  1  0  0  0
M  END
> <i_ionizer_Ion_state_n>
0

> <i_ionizer_Tot_Q>
0

> <s_ionizer_Ion_centers>


> <s_ionizer_Ion_types>


> <s_ionizer_Ion_ctrs_in>


> <r_ionizer_Ionization_penalty>
0.0190381

> <r_ionizer_Ionization_penalty_charging>
0

> <r_ionizer_Ionization_penalty_neutral>
0.0190381

> <i_mmod_Serial_Number-OPLS-2005>
766

> <i_i_glide_lignum>
757

> <r_i_docking_score>
-6.85926

> <r_i_glide_gscore>
-6.85926

> <r_i_glide_lipo>
-0.854332

> <r_i_glide_hbond>
-0.45

> <r_i_glide_metal>
0

> <r_i_glide_eburp>
-2.5

> <r_i_glide_evdw>
-21.4467

> <r_i_glide_ecoul>
-6.91119

> <r_i_glide_erotb>
0

> <r_i_glide_esite>
-0.648072

> <r_i_glide_emodel>
-36.489

> <r_i_glide_energy>
-28.3579

> <r_i_glide_einternal>
0.0164778

> <i_i_glide_confnum>
1

> <i_i_glide_posenum>
14

$$$$
C00570
                    3D
 Structure written by MMmdl.
 47 48  0  0  1  0            999 V2000
    2.8603   -0.0258    1.2672 C   0  0  2  0  0  0
    4.2415   -0.1621    0.6699 N   0  0  0  0  0  0
    2.4158    1.2845    1.0704 O   0  0  0  0  0  0
    2.9049   -0.2946    2.7783 C   0  0  1  0  0  0
    5.0129    1.0033    0.4530 C   0  0  0  0  0  0
    4.7462   -1.4010    0.3010 C   0  0  0  0  0  0
    1.9756    1.8487    2.3026 C   0  0  1  0  0  0
    2.8118    1.1124    3.3541 C   0  0  1  0  0  0
    1.8161   -1.1041    3.1816 O   0  0  0  0  0  0
    6.2559    0.8399   -0.0971 N   0  0  0  0  0  0
    4.5904    2.1237    0.7347 O   0  0  0  0  0  0
    5.9744   -1.5437   -0.2433 C   0  0  0  0  0  0
    2.1635    3.3790    2.2514 C   0  0  0  0  0  0
    2.2486    1.1138    4.6528 O   0  0  0  0  0  0
    6.7455   -0.3364   -0.4362 C   0  0  0  0  0  0
    2.0894    3.9166    0.9411 O   0  0  0  0  0  0
    7.9739   -0.3930   -0.9681 N   0  0  0  0  0  0
    1.9559    5.5886    0.6401 P   0  0  0  0  0  0
    0.9204    6.1648    1.8626 O   0  0  0  0  0  0
    3.2910    6.1936    0.8563 O   0  0  0  0  0  0
   -0.3767    5.5298    2.7658 P   0  0  0  0  0  0
   -1.1187    6.8979    3.4622 O   0  0  0  0  0  0
   -1.3412    4.9062    1.8308 O   0  0  0  0  0  0
   -1.7499    7.8866    2.6729 C   0  0  0  0  0  0
   -0.9615    8.1201    1.3782 C   0  0  0  0  0  0
    2.2118   -0.7081    0.7148 H   0  0  0  0  0  0
    3.8319   -0.7910    3.0690 H   0  0  0  0  0  0
    4.1530   -2.2921    0.4461 H   0  0  0  0  0  0
    0.9240    1.5846    2.4032 H   0  0  0  0  0  0
    3.8118    1.5456    3.4000 H   0  0  0  0  0  0
    1.8724   -1.2083    4.1205 H   0  0  0  0  0  0
    6.3317   -2.5280   -0.5101 H   0  0  0  0  0  0
    1.4507    3.8904    2.8988 H   0  0  0  0  0  0
    3.1517    3.6373    2.6324 H   0  0  0  0  0  0
    2.7459    0.5109    5.1976 H   0  0  0  0  0  0
    8.3728   -1.2804   -1.2372 H   0  0  0  0  0  0
    8.4986    0.4599   -1.0972 H   0  0  0  0  0  0
   -2.7687    7.5654    2.4555 H   0  0  0  0  0  0
   -1.8195    8.8156    3.2391 H   0  0  0  0  0  0
   -0.0355    8.6597    1.5715 H   0  0  0  0  0  0
   -0.6855    7.1654    0.9298 H   0  0  0  0  0  0
   -1.2152    9.0375   -0.4300 H   0  0  0  0  0  0
   -2.6043    8.3995    0.1953 H   0  0  0  0  0  0
    1.2906    5.7617   -0.6706 O   0  5  0  0  0  0
    0.1872    4.7197    3.8683 O   0  5  0  0  0  0
   -1.7535    8.8980    0.4129 N   0  3  0  0  0  0
   -1.9818    9.7940    0.8198 H   0  0  0  0  0  0
  1  2  1  0  0  0
  1  3  1  0  0  0
  1  4  1  0  0  0
  1 26  1  0  0  0
  2  5  1  0  0  0
  2  6  1  0  0  0
  3  7  1  0  0  0
  4  8  1  0  0  0
  4  9  1  0  0  0
  4 27  1  0  0  0
  5 10  1  0  0  0
  5 11  2  0  0  0
  6 12  2  0  0  0
  6 28  1  0  0  0
  7 13  1  0  0  0
  7  8  1  0  0  0
  7 29  1  0  0  0
  8 14  1  0  0  0
  8 30  1  0  0  0
  9 31  1  0  0  0
 10 15  2  0  0  0
 12 15  1  0  0  0
 12 32  1  0  0  0
 13 16  1  0  0  0
 13 33  1  0  0  0
 13 34  1  0  0  0
 14 35  1  0  0  0
 15 17  1  0  0  0
 16 18  1  0  0  0
 17 36  1  0  0  0
 17 37  1  0  0  0
 18 19  1  0  0  0
 18 20  2  0  0  0
 18 44  1  0  0  0
 19 21  1  0  0  0
 21 22  1  0  0  0
 21 23  2  0  0  0
 21 45  1  0  0  0
 22 24  1  0  0  0
 24 25  1  0  0  0
 24 38  1  0  0  0
 24 39  1  0  0  0
 25 40  1  0  0  0
 25 41  1  0  0  0
 25 46  1  0  0  0
 42 46  1  0  0  0
 43 46  1  0  0  0
 46 47  1  0  0  0
M  CHG  3  44  -1  45  -1  46   1
M  END
> <i_ionizer_Ion_state_n>
7

> <i_ionizer_Tot_Q>
-1

> <s_ionizer_Ion_centers>
44_45_46

> <s_ionizer_Ion_types>
OM_OM_N5

> <s_ionizer_Ion_ctrs_in>
20_24_28

> <r_ionizer_Ionization_penalty>
0.000202249

> <r_ionizer_Ionization_penalty_charging>
0.000202249

> <r_ionizer_Ionization_penalty_neutral>
0

> <s_st_Chirality_1>
1_R_3_2_4_26

> <s_st_Chirality_2>
4_R_9_1_8_27

> <s_st_Chirality_3>
7_R_3_8_13_29

> <s_st_Chirality_4>
8_R_14_4_7_30

> <i_mmod_Serial_Number-OPLS-2005>
281

> <i_i_glide_lignum>
279

> <r_i_docking_score>
-6.85514

> <r_i_glide_gscore>
-6.85514

> <r_i_glide_lipo>
-0.876262

> <r_i_glide_hbond>
-1.34074

> <r_i_glide_metal>
0

> <r_i_glide_eburp>
-0.814834

> <r_i_glide_evdw>
-33.1881

> <r_i_glide_ecoul>
-16.2584

> <r_i_glide_erotb>
0.922705

> <r_i_glide_esite>
-0.465108

> <r_i_glide_emodel>
-112.978

> <r_i_glide_energy>
-49.4466

> <r_i_glide_einternal>
11.793

> <i_i_glide_confnum>
169

> <i_i_glide_posenum>
855

$$$$
C00259
                    3D
 Structure written by MMmdl.
 20 20  0  0  1  0            999 V2000
    2.8093    0.2000    2.3157 C   0  0  2  0  0  0
    3.6235    0.1542    1.0070 C   0  0  2  0  0  0
    3.6143    0.8580    3.4512 C   0  0  2  0  0  0
    2.4071   -1.0977    2.7184 O   0  0  0  0  0  0
    4.1256    1.5830    0.6927 C   0  0  1  0  0  0
    2.7717   -0.2997   -0.0282 O   0  0  0  0  0  0
    4.1830    2.2091    2.9892 C   0  0  0  0  0  0
    4.6871    0.0498    3.9002 O   0  0  0  0  0  0
    4.8886    2.0525    1.7617 O   0  0  0  0  0  0
    4.9010    1.5594   -0.4831 O   0  0  0  0  0  0
    1.9052    0.7886    2.1506 H   0  0  0  0  0  0
    4.4821   -0.5126    1.1023 H   0  0  0  0  0  0
    2.9617    1.0218    4.3096 H   0  0  0  0  0  0
    3.1695   -1.5731    3.0092 H   0  0  0  0  0  0
    3.2964    2.2707    0.5152 H   0  0  0  0  0  0
    3.2706   -0.3087   -0.8311 H   0  0  0  0  0  0
    3.3774    2.9317    2.8501 H   0  0  0  0  0  0
    4.8522    2.6280    3.7415 H   0  0  0  0  0  0
    4.3348   -0.6716    4.3984 H   0  0  0  0  0  0
    5.1537    0.6634   -0.6449 H   0  0  0  0  0  0
  1  2  1  0  0  0
  1  3  1  0  0  0
  1  4  1  0  0  0
  1 11  1  0  0  0
  2  5  1  0  0  0
  2  6  1  0  0  0
  2 12  1  0  0  0
  3  7  1  0  0  0
  3  8  1  0  0  0
  3 13  1  0  0  0
  4 14  1  0  0  0
  5  9  1  0  0  0
  5 10  1  0  0  0
  5 15  1  0  0  0
  6 16  1  0  0  0
  7  9  1  0  0  0
  7 17  1  0  0  0
  7 18  1  0  0  0
  8 19  1  0  0  0
 10 20  1  0  0  0
M  END
> <i_ionizer_Ion_state_n>
0

> <i_ionizer_Tot_Q>
0

> <s_ionizer_Ion_centers>


> <s_ionizer_Ion_types>


> <s_ionizer_Ion_ctrs_in>


> <r_ionizer_Ionization_penalty>
0

> <r_ionizer_Ionization_penalty_charging>
0

> <r_ionizer_Ionization_penalty_neutral>
0

> <s_st_Chirality_1>
1_S_4_2_3_11

> <s_st_Chirality_2>
2_R_6_5_1_12

> <s_st_Chirality_3>
3_S_8_1_7_13

> <s_st_Chirality_4>
5_R_9_10_2_15

> <i_mmod_Serial_Number-OPLS-2005>
170

> <i_i_glide_lignum>
168

> <r_i_docking_score>
-6.85024

> <r_i_glide_gscore>
-6.85024

> <r_i_glide_lipo>
-0.359342

> <r_i_glide_hbond>
-1.18865

> <r_i_glide_metal>
0

> <r_i_glide_eburp>
-2.5

> <r_i_glide_evdw>
-12.8031

> <r_i_glide_ecoul>
-12.7285

> <r_i_glide_erotb>
0

> <r_i_glide_esite>
-0.505159

> <r_i_glide_emodel>
-33.4662

> <r_i_glide_energy>
-25.5316

> <r_i_glide_einternal>
2.00856

> <i_i_glide_confnum>
1

> <i_i_glide_posenum>
562

$$$$
C02325
                    3D
 Structure written by MMmdl.
 29 29  0  0  1  0            999 V2000
    3.4815    1.7537    1.6085 C   0  0  0  0  0  0
    2.7216    1.0468    2.5634 C   0  0  0  0  0  0
    3.1962    3.1187    1.3793 C   0  0  0  0  0  0
    4.5459    1.0322    0.8855 C   0  0  0  0  0  0
    1.6849    1.6813    3.2904 C   0  0  0  0  0  0
    2.1644    3.7755    2.0938 C   0  0  0  0  0  0
    4.6954   -0.3016    0.7893 C   0  0  0  0  0  0
    1.4195    3.0453    3.0435 C   0  0  0  0  0  0
    0.9084    1.0425    4.2361 O   0  0  0  0  0  0
    1.8324    5.1044    1.9213 O   0  0  0  0  0  0
    5.8191   -0.9757    0.0313 C   0  0  0  0  0  0
    0.4241    3.6781    3.7329 O   0  0  0  0  0  0
    1.1970   -0.3138    4.5420 C   0  0  0  0  0  0
    2.5500    5.8594    0.9560 C   0  0  0  0  0  0
    5.3005   -1.8995   -0.9000 O   0  0  0  0  0  0
    2.9520    0.0050    2.7261 H   0  0  0  0  0  0
    3.7758    3.6608    0.6507 H   0  0  0  0  0  0
    5.2742    1.6540    0.3846 H   0  0  0  0  0  0
    4.0014   -0.9718    1.2722 H   0  0  0  0  0  0
    6.4283   -0.2377   -0.4917 H   0  0  0  0  0  0
    6.4672   -1.4997    0.7342 H   0  0  0  0  0  0
    0.3595    4.5918    3.4996 H   0  0  0  0  0  0
    0.4994   -0.6668    5.3014 H   0  0  0  0  0  0
    1.0814   -0.9537    3.6662 H   0  0  0  0  0  0
    2.2050   -0.4266    4.9433 H   0  0  0  0  0  0
    2.1698    6.8808    0.9439 H   0  0  0  0  0  0
    3.6130    5.9069    1.1963 H   0  0  0  0  0  0
    2.4227    5.4491   -0.0467 H   0  0  0  0  0  0
    4.7566   -1.4345   -1.5172 H   0  0  0  0  0  0
  1  2  1  0  0  0
  1  3  2  0  0  0
  1  4  1  0  0  0
  2  5  2  0  0  0
  2 16  1  0  0  0
  3  6  1  0  0  0
  3 17  1  0  0  0
  4  7  2  0  0  0
  4 18  1  0  0  0
  5  8  1  0  0  0
  5  9  1  0  0  0
  6 10  1  0  0  0
  6  8  2  0  0  0
  7 11  1  0  0  0
  7 19  1  0  0  0
  8 12  1  0  0  0
  9 13  1  0  0  0
 10 14  1  0  0  0
 11 15  1  0  0  0
 11 20  1  0  0  0
 11 21  1  0  0  0
 12 22  1  0  0  0
 13 23  1  0  0  0
 13 24  1  0  0  0
 13 25  1  0  0  0
 14 26  1  0  0  0
 14 27  1  0  0  0
 14 28  1  0  0  0
 15 29  1  0  0  0
M  END
> <i_ionizer_Ion_state_n>
0

> <i_ionizer_Tot_Q>
0

> <s_ionizer_Ion_centers>


> <s_ionizer_Ion_types>


> <s_ionizer_Ion_ctrs_in>


> <r_ionizer_Ionization_penalty>
0.00059219

> <r_ionizer_Ionization_penalty_charging>
0

> <r_ionizer_Ionization_penalty_neutral>
0.00059219

> <s_st_EZ_1>
1_4_7_11_E

> <i_mmod_Serial_Number-OPLS-2005>
485

> <i_i_glide_lignum>
480

> <r_i_docking_score>
-6.83315

> <r_i_glide_gscore>
-6.83315

> <r_i_glide_lipo>
-0.912157

> <r_i_glide_hbond>
-0.895946

> <r_i_glide_metal>
0

> <r_i_glide_eburp>
-2.19521

> <r_i_glide_evdw>
-25.8051

> <r_i_glide_ecoul>
-7.06522

> <r_i_glide_erotb>
0.858624

> <r_i_glide_esite>
-0.917527

> <r_i_glide_emodel>
-44.5945

> <r_i_glide_energy>
-32.8704

> <r_i_glide_einternal>
1.02475

> <i_i_glide_confnum>
4

> <i_i_glide_posenum>
255

$$$$
C00089
                    3D
 Structure written by MMmdl.
 45 46  0  0  1  0            999 V2000
    3.4543    3.9834    2.8258 C   0  0  2  0  0  0
    4.0234    2.9577    2.0432 O   0  0  0  0  0  0
    2.3092    3.5358    3.5003 O   0  0  0  0  0  0
    2.9952    5.2107    1.9969 C   0  0  2  0  0  0
    4.4929    4.3298    3.9132 C   0  0  0  0  0  0
    4.5836    1.8088    2.6594 C   0  0  1  0  0  0
    1.1536    4.2852    3.1260 C   0  0  1  0  0  0
    1.5154    4.9505    1.7942 C   0  0  1  0  0  0
    3.6962    5.4050    0.7861 O   0  0  0  0  0  0
    5.4348    5.2999    3.5001 O   0  0  0  0  0  0
    3.8252    1.2941    3.7289 O   0  0  0  0  0  0
    4.8199    0.7055    1.6168 C   0  0  1  0  0  0
   -0.0813    3.3709    3.0763 C   0  0  0  0  0  0
    0.8126    6.1675    1.6403 O   0  0  0  0  0  0
    2.5053    0.8444    3.3775 C   0  0  1  0  0  0
    3.4838    0.1116    1.1432 C   0  0  2  0  0  0
    5.5666    1.2438    0.5295 O   0  0  0  0  0  0
   -1.2362    4.1230    2.7667 O   0  0  0  0  0  0
    2.6379   -0.3175    2.3596 C   0  0  2  0  0  0
    1.8187    0.4677    4.7054 C   0  0  0  0  0  0
    3.7334   -1.0107    0.2995 O   0  0  0  0  0  0
    1.3562   -0.7630    1.9235 O   0  0  0  0  0  0
    0.8971   -0.6081    4.5668 O   0  0  0  0  0  0
    3.1175    6.0994    2.6192 H   0  0  0  0  0  0
    3.9661    4.7321    4.7793 H   0  0  0  0  0  0
    4.9983    3.4182    4.2344 H   0  0  0  0  0  0
    5.5468    2.0882    3.0955 H   0  0  0  0  0  0
    1.0221    5.0464    3.8978 H   0  0  0  0  0  0
    1.3295    4.2870    0.9497 H   0  0  0  0  0  0
    4.6065    5.5497    0.9946 H   0  0  0  0  0  0
    5.5535    5.2263    2.5656 H   0  0  0  0  0  0
    5.4132   -0.0791    2.0889 H   0  0  0  0  0  0
    0.0422    2.5753    2.3417 H   0  0  0  0  0  0
   -0.2311    2.8945    4.0455 H   0  0  0  0  0  0
    1.0568    6.7393    2.3538 H   0  0  0  0  0  0
    1.9615    1.6721    2.9196 H   0  0  0  0  0  0
    2.9397    0.8655    0.5713 H   0  0  0  0  0  0
    5.9542    0.5057    0.0388 H   0  0  0  0  0  0
   -1.1088    4.5392    1.9274 H   0  0  0  0  0  0
    3.1349   -1.1509    2.8586 H   0  0  0  0  0  0
    2.5632    0.2076    5.4582 H   0  0  0  0  0  0
    1.2748    1.3312    5.0896 H   0  0  0  0  0  0
    3.7934   -0.6992   -0.6139 H   0  0  0  0  0  0
    0.9149   -1.2033    2.6622 H   0  0  0  0  0  0
    1.3792   -1.4416    4.6542 H   0  0  0  0  0  0
  1  2  1  0  0  0
  1  3  1  0  0  0
  1  4  1  0  0  0
  1  5  1  0  0  0
  2  6  1  0  0  0
  3  7  1  0  0  0
  4  8  1  0  0  0
  4  9  1  0  0  0
  4 24  1  0  0  0
  5 10  1  0  0  0
  5 25  1  0  0  0
  5 26  1  0  0  0
  6 11  1  0  0  0
  6 12  1  0  0  0
  6 27  1  0  0  0
  7 13  1  0  0  0
  7  8  1  0  0  0
  7 28  1  0  0  0
  8 14  1  0  0  0
  8 29  1  0  0  0
  9 30  1  0  0  0
 10 31  1  0  0  0
 11 15  1  0  0  0
 12 16  1  0  0  0
 12 17  1  0  0  0
 12 32  1  0  0  0
 13 18  1  0  0  0
 13 33  1  0  0  0
 13 34  1  0  0  0
 14 35  1  0  0  0
 15 19  1  0  0  0
 15 20  1  0  0  0
 15 36  1  0  0  0
 16 21  1  0  0  0
 16 19  1  0  0  0
 16 37  1  0  0  0
 17 38  1  0  0  0
 18 39  1  0  0  0
 19 22  1  0  0  0
 19 40  1  0  0  0
 20 23  1  0  0  0
 20 41  1  0  0  0
 20 42  1  0  0  0
 21 43  1  0  0  0
 22 44  1  0  0  0
 23 45  1  0  0  0
M  END
> <i_ionizer_Ion_state_n>
0

> <i_ionizer_Tot_Q>
0

> <s_ionizer_Ion_centers>


> <s_ionizer_Ion_types>


> <s_ionizer_Ion_ctrs_in>


> <r_ionizer_Ionization_penalty>
0

> <r_ionizer_Ionization_penalty_charging>
0

> <r_ionizer_Ionization_penalty_neutral>
0

> <s_st_Chirality_1>
1_S_2_3_4_5

> <s_st_Chirality_2>
4_S_9_1_8_24

> <s_st_Chirality_3>
6_R_2_11_12_27

> <s_st_Chirality_4>
7_R_3_8_13_28

> <s_st_Chirality_5>
8_R_14_4_7_29

> <s_st_Chirality_6>
12_R_17_6_16_32

> <s_st_Chirality_7>
15_R_11_19_20_36

> <s_st_Chirality_8>
16_S_21_12_19_37

> <s_st_Chirality_9>
19_R_22_16_15_40

> <i_mmod_Serial_Number-OPLS-2005>
62

> <i_i_glide_lignum>
61

> <r_i_docking_score>
-6.82954

> <r_i_glide_gscore>
-6.82954

> <r_i_glide_lipo>
-0.899506

> <r_i_glide_hbond>
-1.78938

> <r_i_glide_metal>
0

> <r_i_glide_eburp>
-1.19468

> <r_i_glide_evdw>
-21.1724

> <r_i_glide_ecoul>
-12.2001

> <r_i_glide_erotb>
0.924695

> <r_i_glide_esite>
-0.956874

> <r_i_glide_emodel>
-45.8834

> <r_i_glide_energy>
-33.3724

> <r_i_glide_einternal>
10.7674

> <i_i_glide_confnum>
20

> <i_i_glide_posenum>
812

$$$$
C02637
                    3D
 Structure written by MMmdl.
 19 19  0  0  1  0            999 V2000
    1.6674    2.3693    3.1423 C   0  0  0  0  0  0
    1.1910    1.2826    4.0977 C   0  0  0  0  0  0
    2.7738    2.2492    2.3810 C   0  0  0  0  0  0
    0.7845    3.6448    3.1123 C   0  0  0  0  0  0
    1.7447   -0.1101    3.7425 C   0  0  2  0  0  0
    3.6117    1.0382    2.4193 C   0  0  0  0  0  0
   -0.1872    3.6570    3.8991 O   0  0  0  0  0  0
    3.2524   -0.0794    3.4096 C   0  0  1  0  0  0
    1.0230   -0.6247    2.6386 O   0  0  0  0  0  0
    4.6033    0.9027    1.7044 O   0  0  0  0  0  0
    3.9916    0.1000    4.6011 O   0  0  0  0  0  0
    1.5166    1.5614    5.1002 H   0  0  0  0  0  0
    0.1008    1.2584    4.1185 H   0  0  0  0  0  0
    3.0711    3.0482    1.7172 H   0  0  0  0  0  0
    1.5688   -0.7870    4.5790 H   0  0  0  0  0  0
    3.5508   -1.0367    2.9808 H   0  0  0  0  0  0
    1.1854   -0.0742    1.8880 H   0  0  0  0  0  0
    4.1073   -0.7457    5.0073 H   0  0  0  0  0  0
    1.1262    4.5291    2.2971 O   0  5  0  0  0  0
  1  2  1  0  0  0
  1  3  2  0  0  0
  1  4  1  0  0  0
  2  5  1  0  0  0
  2 12  1  0  0  0
  2 13  1  0  0  0
  3  6  1  0  0  0
  3 14  1  0  0  0
  4  7  2  0  0  0
  4 19  1  0  0  0
  5  8  1  0  0  0
  5  9  1  0  0  0
  5 15  1  0  0  0
  6 10  2  0  0  0
  6  8  1  0  0  0
  8 11  1  0  0  0
  8 16  1  0  0  0
  9 17  1  0  0  0
 11 18  1  0  0  0
M  CHG  1  19  -1
M  END
> <i_ionizer_Ion_state_n>
1

> <i_ionizer_Tot_Q>
-1

> <s_ionizer_Ion_centers>
19

> <s_ionizer_Ion_types>
OM

> <s_ionizer_Ion_ctrs_in>
7

> <r_ionizer_Ionization_penalty>
0.00059219

> <r_ionizer_Ionization_penalty_charging>
0.00059219

> <r_ionizer_Ionization_penalty_neutral>
0

> <s_st_Chirality_1>
5_R_9_8_2_15

> <s_st_Chirality_2>
8_S_11_6_5_16

> <s_st_EZ_1>
4_1_3_6_E

> <i_mmod_Serial_Number-OPLS-2005>
501

> <i_i_glide_lignum>
496

> <r_i_docking_score>
-6.82783

> <r_i_glide_gscore>
-6.82783

> <r_i_glide_lipo>
-0.47599

> <r_i_glide_hbond>
-1.15

> <r_i_glide_metal>
0

> <r_i_glide_eburp>
-2.49143

> <r_i_glide_evdw>
-18.9723

> <r_i_glide_ecoul>
-10.2333

> <r_i_glide_erotb>
0

> <r_i_glide_esite>
-0.169292

> <r_i_glide_emodel>
-54.3642

> <r_i_glide_energy>
-29.2056

> <r_i_glide_einternal>
0.949408

> <i_i_glide_confnum>
1

> <i_i_glide_posenum>
151

$$$$
C00531
                    3D
 Structure written by MMmdl.
 91 93  0  0  1  0            999 V2000
   -9.9414   11.1496   11.9448 N   0  0  0  0  0  0
  -11.1318   10.5900   11.2266 C   0  0  1  0  0  0
   -9.0237   10.4140   12.6639 C   0  0  0  0  0  0
   -9.4732   12.4485   11.9996 C   0  0  0  0  0  0
  -12.3262   11.5525   11.2571 C   0  0  1  0  0  0
  -10.7631   10.4133    9.8897 O   0  0  0  0  0  0
   -8.0565   11.3453   13.1303 C   0  0  0  0  0  0
   -9.0153    9.0688   12.9007 N   0  0  0  0  0  0
   -8.3783   12.6216   12.6917 N   0  0  0  0  0  0
  -12.8894   11.3788    9.8601 C   0  0  1  0  0  0
  -13.3261   11.1974   12.1873 O   0  0  0  0  0  0
  -11.6411   11.1205    9.0145 C   0  0  1  0  0  0
   -7.0049   10.8038   13.9111 C   0  0  0  0  0  0
   -7.9679    8.7062   13.6465 C   0  0  0  0  0  0
  -13.7187   10.2226    9.8309 O   0  0  0  0  0  0
  -10.9341   12.3980    8.5354 C   0  0  0  0  0  0
   -6.9940    9.4718   14.1501 N   0  0  0  0  0  0
   -6.0172   11.5493   14.4240 N   0  0  0  0  0  0
  -14.9053   10.1532    8.4893 P   0  0  0  0  0  0
   -9.8063   12.0893    7.7426 O   0  0  0  0  0  0
  -14.1623   10.8918    7.3525 O   0  0  0  0  0  0
   -8.7025   13.3017    7.2847 P   0  0  0  0  0  0
   -7.4798   12.4985    6.4130 O   0  0  0  0  0  0
   -9.3979   14.2287    6.3618 O   0  0  0  0  0  0
   -6.7654   10.9536    6.4017 P   0  0  0  0  0  0
   -5.2454   11.2324    5.6822 O   0  0  0  0  0  0
   -6.5353   10.5110    7.7959 O   0  0  0  0  0  0
   -4.0292   11.0041    6.3776 C   0  0  0  0  0  0
   -2.8142   11.6796    5.6883 C   0  0  0  0  0  0
   -2.6380   11.0257    4.2715 C   0  0  2  0  0  0
   -3.0609   13.2034    5.5968 C   0  0  0  0  0  0
   -1.5655   11.4363    6.5687 C   0  0  0  0  0  0
   -2.3079    9.5205    4.2422 C   0  0  0  0  0  0
   -1.6540   11.6941    3.5006 O   0  0  0  0  0  0
   -2.3066    8.9375    3.0339 N   0  0  0  0  0  0
   -2.0474    8.9043    5.2760 O   0  0  0  0  0  0
   -1.8041    7.5968    2.7663 C   0  0  0  0  0  0
   -0.7122    7.6345    1.6832 C   0  0  0  0  0  0
    0.0976    6.3364    1.6054 C   0  0  0  0  0  0
    1.3008    6.4204    1.0198 N   0  0  0  0  0  0
   -0.3566    5.2854    2.0581 O   0  0  0  0  0  0
    2.1853    5.2851    0.7947 C   0  0  0  0  0  0
    2.5377    4.6010    2.1203 C   0  0  0  0  0  0
    3.6295    3.1737    1.8566 S   0  0  0  0  0  0
    3.7055    2.5544    3.5561 C   0  0  0  0  0  0
    2.4949    1.7418    4.0155 C   0  0  0  0  0  0
    4.6560    2.7664    4.3086 O   0  0  0  0  0  0
    2.5614    0.3290    3.4557 C   0  0  0  0  0  0
    1.2980   -0.1471    2.6883 C   0  0  0  0  0  0
    3.6355   -0.4624    3.6181 C   0  0  0  0  0  0
    0.4183    0.7194    2.4934 O   0  0  0  0  0  0
  -11.3426    9.6235   11.6852 H   0  0  0  0  0  0
   -9.9670   13.2787   11.5170 H   0  0  0  0  0  0
  -12.0030   12.5813   11.4124 H   0  0  0  0  0  0
  -13.4316   12.2586    9.5260 H   0  0  0  0  0  0
  -12.9230   11.2620   13.0433 H   0  0  0  0  0  0
  -11.8588   10.4925    8.1511 H   0  0  0  0  0  0
   -7.8992    7.6525   13.8734 H   0  0  0  0  0  0
  -11.6097   13.0359    7.9733 H   0  0  0  0  0  0
  -10.5952   12.9731    9.3975 H   0  0  0  0  0  0
   -5.2907   11.1139   14.9726 H   0  0  0  0  0  0
   -6.0063   12.5451   14.2556 H   0  0  0  0  0  0
   -4.1270   11.3578    7.4050 H   0  0  0  0  0  0
   -3.8815    9.9287    6.4535 H   0  0  0  0  0  0
   -3.5800   11.1522    3.7350 H   0  0  0  0  0  0
   -2.2373   13.7288    5.1162 H   0  0  0  0  0  0
   -3.9687   13.4319    5.0379 H   0  0  0  0  0  0
   -3.1795   13.6426    6.5876 H   0  0  0  0  0  0
   -0.6747   11.9223    6.1715 H   0  0  0  0  0  0
   -1.7057   11.8371    7.5725 H   0  0  0  0  0  0
   -1.3486   10.3722    6.6668 H   0  0  0  0  0  0
   -1.7789   11.5137    2.5755 H   0  0  0  0  0  0
   -2.6711    9.4626    2.2526 H   0  0  0  0  0  0
   -1.4054    7.1710    3.6891 H   0  0  0  0  0  0
   -2.6350    6.9635    2.4502 H   0  0  0  0  0  0
   -1.1614    7.8174    0.7063 H   0  0  0  0  0  0
   -0.0344    8.4670    1.8788 H   0  0  0  0  0  0
    1.6227    7.3265    0.7120 H   0  0  0  0  0  0
    1.6993    4.5732    0.1254 H   0  0  0  0  0  0
    3.0939    5.6282    0.2971 H   0  0  0  0  0  0
    3.0343    5.3086    2.7857 H   0  0  0  0  0  0
    1.6283    4.2646    2.6199 H   0  0  0  0  0  0
    2.4870    1.6996    5.1052 H   0  0  0  0  0  0
    1.5705    2.2370    3.7146 H   0  0  0  0  0  0
    3.6574   -1.4640    3.2136 H   0  0  0  0  0  0
    4.5065   -0.1187    4.1563 H   0  0  0  0  0  0
  -15.0994    8.6335    8.3006 O   0  5  0  0  0  0
  -16.1008   10.9105    9.1078 O   0  5  0  0  0  0
   -8.0897   13.8446    8.5185 O   0  5  0  0  0  0
   -7.5620   10.0981    5.4920 O   0  5  0  0  0  0
    1.3108   -1.3356    2.3009 O   0  5  0  0  0  0
  1  2  1  0  0  0
  1  3  1  0  0  0
  1  4  1  0  0  0
  2  5  1  0  0  0
  2  6  1  0  0  0
  2 52  1  0  0  0
  3  7  2  0  0  0
  3  8  1  0  0  0
  4  9  2  0  0  0
  4 53  1  0  0  0
  5 10  1  0  0  0
  5 11  1  0  0  0
  5 54  1  0  0  0
  6 12  1  0  0  0
  7 13  1  0  0  0
  7  9  1  0  0  0
  8 14  2  0  0  0
 10 15  1  0  0  0
 10 12  1  0  0  0
 10 55  1  0  0  0
 11 56  1  0  0  0
 12 16  1  0  0  0
 12 57  1  0  0  0
 13 17  2  0  0  0
 13 18  1  0  0  0
 14 17  1  0  0  0
 14 58  1  0  0  0
 15 19  1  0  0  0
 16 20  1  0  0  0
 16 59  1  0  0  0
 16 60  1  0  0  0
 18 61  1  0  0  0
 18 62  1  0  0  0
 19 21  2  0  0  0
 19 87  1  0  0  0
 19 88  1  0  0  0
 20 22  1  0  0  0
 22 23  1  0  0  0
 22 24  2  0  0  0
 22 89  1  0  0  0
 23 25  1  0  0  0
 25 26  1  0  0  0
 25 27  2  0  0  0
 25 90  1  0  0  0
 26 28  1  0  0  0
 28 29  1  0  0  0
 28 63  1  0  0  0
 28 64  1  0  0  0
 29 30  1  0  0  0
 29 31  1  0  0  0
 29 32  1  0  0  0
 30 33  1  0  0  0
 30 34  1  0  0  0
 30 65  1  0  0  0
 31 66  1  0  0  0
 31 67  1  0  0  0
 31 68  1  0  0  0
 32 69  1  0  0  0
 32 70  1  0  0  0
 32 71  1  0  0  0
 33 35  1  0  0  0
 33 36  2  0  0  0
 34 72  1  0  0  0
 35 37  1  0  0  0
 35 73  1  0  0  0
 37 38  1  0  0  0
 37 74  1  0  0  0
 37 75  1  0  0  0
 38 39  1  0  0  0
 38 76  1  0  0  0
 38 77  1  0  0  0
 39 40  1  0  0  0
 39 41  2  0  0  0
 40 42  1  0  0  0
 40 78  1  0  0  0
 42 43  1  0  0  0
 42 79  1  0  0  0
 42 80  1  0  0  0
 43 44  1  0  0  0
 43 81  1  0  0  0
 43 82  1  0  0  0
 44 45  1  0  0  0
 45 46  1  0  0  0
 45 47  2  0  0  0
 46 48  1  0  0  0
 46 83  1  0  0  0
 46 84  1  0  0  0
 48 49  1  0  0  0
 48 50  2  0  0  0
 49 51  2  0  0  0
 49 91  1  0  0  0
 50 85  1  0  0  0
 50 86  1  0  0  0
M  CHG  5  87  -1  88  -1  89  -1  90  -1  91  -1
M  END
> <i_ionizer_Ion_state_n>
62

> <i_ionizer_Tot_Q>
-5

> <s_ionizer_Ion_centers>
87_88_89_90_91

> <s_ionizer_Ion_types>
OM_OM_OM_OM_OM

> <s_ionizer_Ion_ctrs_in>
21_22_26_30_55

> <r_ionizer_Ionization_penalty>
0.000640761

> <r_ionizer_Ionization_penalty_charging>
0.000622025

> <r_ionizer_Ionization_penalty_neutral>
1.87357e-05

> <s_st_Chirality_1>
2_R_6_1_5_52

> <s_st_Chirality_2>
5_R_11_2_10_54

> <s_st_Chirality_3>
10_R_15_5_12_55

> <s_st_Chirality_4>
12_R_6_10_16_57

> <s_st_Chirality_5>
30_R_34_33_29_65

> <i_mmod_Serial_Number-OPLS-2005>
271

> <i_i_glide_lignum>
269

> <r_i_docking_score>
-6.82701

> <r_i_glide_gscore>
-6.82701

> <r_i_glide_lipo>
-0.734378

> <r_i_glide_hbond>
-2.08869

> <r_i_glide_metal>
0

> <r_i_glide_eburp>
0.0886924

> <r_i_glide_evdw>
-43.4269

> <r_i_glide_ecoul>
-10.2718

> <r_i_glide_erotb>
0.54229

> <r_i_glide_esite>
-0.133591

> <r_i_glide_emodel>
-110.591

> <r_i_glide_energy>
-53.6987

> <r_i_glide_einternal>
9.22128

> <i_i_glide_confnum>
689

> <i_i_glide_posenum>
853

$$$$
C05830
                    3D
 Structure written by MMmdl.
 24 25  0  0  1  0            999 V2000
    2.0412    2.1214    3.5000 C   0  0  0  0  0  0
    3.2781    2.8274    3.5008 C   0  0  0  0  0  0
    2.0252    0.7591    3.8970 C   0  0  0  0  0  0
    0.8893    2.7279    3.1286 N   0  0  0  0  0  0
    3.2866    4.1847    3.1040 C   0  0  0  0  0  0
    4.4709    2.1815    3.8907 C   0  0  0  0  0  0
    3.2329    0.1261    4.2856 C   0  0  0  0  0  0
    0.8058    0.1089    3.8828 O   0  0  0  0  0  0
    0.8917    4.0265    2.7480 C   0  0  0  0  0  0
    2.0778    4.7910    2.7230 C   0  0  0  0  0  0
    4.4384    4.9200    3.0819 O   0  0  0  0  0  0
    4.4463    0.8338    4.2819 C   0  0  0  0  0  0
    0.7223   -1.1939    4.4413 C   0  0  0  0  0  0
   -0.4213    4.6475    2.3452 C   0  0  0  0  0  0
   -0.4053    5.6976    1.6635 O   0  0  0  0  0  0
    5.4118    2.7123    3.8931 H   0  0  0  0  0  0
    3.2568   -0.9080    4.5930 H   0  0  0  0  0  0
    2.0571    5.8267    2.4157 H   0  0  0  0  0  0
    4.3247    5.7691    2.6836 H   0  0  0  0  0  0
    5.3602    0.3411    4.5800 H   0  0  0  0  0  0
   -0.3007   -1.5584    4.3490 H   0  0  0  0  0  0
    1.3702   -1.8962    3.9152 H   0  0  0  0  0  0
    0.9755   -1.1905    5.5023 H   0  0  0  0  0  0
   -1.4905    4.1010    2.7003 O   0  5  0  0  0  0
  1  2  1  0  0  0
  1  3  2  0  0  0
  1  4  1  0  0  0
  2  5  1  0  0  0
  2  6  2  0  0  0
  3  7  1  0  0  0
  3  8  1  0  0  0
  4  9  2  0  0  0
  5 10  2  0  0  0
  5 11  1  0  0  0
  6 12  1  0  0  0
  6 16  1  0  0  0
  7 12  2  0  0  0
  7 17  1  0  0  0
  8 13  1  0  0  0
  9 14  1  0  0  0
  9 10  1  0  0  0
 10 18  1  0  0  0
 11 19  1  0  0  0
 12 20  1  0  0  0
 13 21  1  0  0  0
 13 22  1  0  0  0
 13 23  1  0  0  0
 14 15  2  0  0  0
 14 24  1  0  0  0
M  CHG  1  24  -1
M  END
> <i_ionizer_Ion_state_n>
1

> <i_ionizer_Tot_Q>
-1

> <s_ionizer_Ion_centers>
24

> <s_ionizer_Ion_types>
OM

> <s_ionizer_Ion_ctrs_in>
15

> <r_ionizer_Ionization_penalty>
0.00059219

> <r_ionizer_Ionization_penalty_charging>
0.00059219

> <r_ionizer_Ionization_penalty_neutral>
0

> <i_mmod_Serial_Number-OPLS-2005>
804

> <i_i_glide_lignum>
795

> <r_i_docking_score>
-6.82683

> <r_i_glide_gscore>
-6.82683

> <r_i_glide_lipo>
-0.950475

> <r_i_glide_hbond>
-0.7

> <r_i_glide_metal>
0

> <r_i_glide_eburp>
-2.13492

> <r_i_glide_evdw>
-24.189

> <r_i_glide_ecoul>
-4.91323

> <r_i_glide_erotb>
0

> <r_i_glide_esite>
-0.614992

> <r_i_glide_emodel>
-55.5339

> <r_i_glide_energy>
-29.1022

> <r_i_glide_einternal>
0.512379

> <i_i_glide_confnum>
1

> <i_i_glide_posenum>
734

$$$$
C02985
                    3D
 Structure written by MMmdl.
 26 26  0  0  1  0            999 V2000
    0.0144    4.3206    2.8519 P   0  0  0  0  0  0
    0.1812    2.5392    2.7026 O   0  0  0  0  0  0
    0.5037    4.5518    4.2999 O   0  0  0  0  0  0
    1.4784    1.9678    2.5583 C   0  0  2  0  0  0
    1.4996    0.4171    2.5915 C   0  0  2  0  0  0
    2.3964    2.4966    3.5123 O   0  0  0  0  0  0
    2.9397   -0.0903    2.3878 C   0  0  1  0  0  0
    0.7126   -0.0315    1.5062 O   0  0  0  0  0  0
    3.7565    2.1309    3.3035 C   0  0  2  0  0  0
    3.9107    0.5956    3.3686 C   0  0  1  0  0  0
    3.0254   -1.4976    2.5352 O   0  0  0  0  0  0
    4.6382    2.8925    4.3043 C   0  0  0  0  0  0
    3.7139    0.1485    4.6988 O   0  0  0  0  0  0
    1.8190    2.2976    1.5752 H   0  0  0  0  0  0
    1.1090    0.0205    3.5278 H   0  0  0  0  0  0
    3.2590    0.1528    1.3730 H   0  0  0  0  0  0
    1.1220    0.3087    0.7198 H   0  0  0  0  0  0
    4.0414    2.4615    2.3032 H   0  0  0  0  0  0
    4.9346    0.3348    3.0980 H   0  0  0  0  0  0
    3.1673   -1.6955    3.4474 H   0  0  0  0  0  0
    5.6895    2.6311    4.1818 H   0  0  0  0  0  0
    4.5450    3.9686    4.1568 H   0  0  0  0  0  0
    4.3540    2.6802    5.3352 H   0  0  0  0  0  0
    4.0362   -0.7364    4.7694 H   0  0  0  0  0  0
    0.9284    4.8537    1.7262 O   0  5  0  0  0  0
   -1.5022    4.5040    2.6251 O   0  5  0  0  0  0
  1  2  1  0  0  0
  1  3  2  0  0  0
  1 25  1  0  0  0
  1 26  1  0  0  0
  2  4  1  0  0  0
  4  5  1  0  0  0
  4  6  1  0  0  0
  4 14  1  0  0  0
  5  7  1  0  0  0
  5  8  1  0  0  0
  5 15  1  0  0  0
  6  9  1  0  0  0
  7 10  1  0  0  0
  7 11  1  0  0  0
  7 16  1  0  0  0
  8 17  1  0  0  0
  9 12  1  0  0  0
  9 10  1  0  0  0
  9 18  1  0  0  0
 10 13  1  0  0  0
 10 19  1  0  0  0
 11 20  1  0  0  0
 12 21  1  0  0  0
 12 22  1  0  0  0
 12 23  1  0  0  0
 13 24  1  0  0  0
M  CHG  2  25  -1  26  -1
M  END
> <i_ionizer_Ion_state_n>
3

> <i_ionizer_Tot_Q>
-2

> <s_ionizer_Ion_centers>
25_26

> <s_ionizer_Ion_types>
OM_OM

> <s_ionizer_Ion_ctrs_in>
3_4

> <r_ionizer_Ionization_penalty>
1.49178e-05

> <r_ionizer_Ionization_penalty_charging>
1.49178e-05

> <r_ionizer_Ionization_penalty_neutral>
0

> <s_st_Chirality_1>
5_S_8_4_7_15

> <s_st_Chirality_2>
7_R_11_5_10_16

> <s_st_Chirality_3>
9_S_6_10_12_18

> <s_st_Chirality_4>
10_R_13_7_9_19

> <s_st_Chirality_5>
4_R_2_6_5_14

> <i_mmod_Serial_Number-OPLS-2005>
518

> <i_i_glide_lignum>
512

> <r_i_docking_score>
-6.8235

> <r_i_glide_gscore>
-6.8235

> <r_i_glide_lipo>
-0.476796

> <r_i_glide_hbond>
-1.58128

> <r_i_glide_metal>
0

> <r_i_glide_eburp>
-1.95361

> <r_i_glide_evdw>
-18.7253

> <r_i_glide_ecoul>
-11.9493

> <r_i_glide_erotb>
0.338017

> <r_i_glide_esite>
-0.456868

> <r_i_glide_emodel>
-65.0477

> <r_i_glide_energy>
-30.6746

> <r_i_glide_einternal>
1.51444

> <i_i_glide_confnum>
1

> <i_i_glide_posenum>
150

$$$$
C06649
                    3D
 Structure written by MMmdl.
 32 33  0  0  1  0            999 V2000
    4.0077    0.2477    1.2500 C   0  0  0  0  0  0
    3.1661    1.0375    2.2626 C   0  0  1  0  0  0
    5.3187    0.8648    0.7447 C   0  0  1  0  0  0
    3.6691   -1.0067    0.8750 C   0  0  0  0  0  0
    2.9501    2.4926    1.8140 C   0  0  0  0  0  0
    1.9449    0.2551    2.8459 C   0  0  0  0  0  0
    6.3981   -0.2241    0.5066 C   0  0  1  0  0  0
    5.0819    1.5218   -0.4855 O   0  0  0  0  0  0
    4.5147   -1.7916   -0.0063 C   0  0  0  0  0  0
    2.6718    2.8731    0.4786 C   0  0  0  0  0  0
    3.0419    3.5065    2.7958 C   0  0  0  0  0  0
    1.4657    0.9994    4.3963 Cl  0  0  0  0  0  0
    0.5502    0.4000    1.7395 Cl  0  0  0  0  0  0
    2.2795   -1.4743    3.1474 Cl  0  0  0  0  0  0
    5.7998   -1.4450   -0.1845 C   0  0  0  0  0  0
    7.5203    0.3144   -0.1714 O   0  0  0  0  0  0
    2.4960    4.2285    0.1384 C   0  0  0  0  0  0
    2.8677    4.8620    2.4578 C   0  0  0  0  0  0
    6.8693   -2.2956   -1.2451 Cl  0  0  0  0  0  0
    2.5949    5.2247    1.1266 C   0  0  0  0  0  0
    2.3804    6.8846    0.7078 Cl  0  0  0  0  0  0
    3.8178    1.1570    3.1299 H   0  0  0  0  0  0
    5.7001    1.5963    1.4574 H   0  0  0  0  0  0
    2.7671   -1.4581    1.2614 H   0  0  0  0  0  0
    6.7520   -0.5704    1.4786 H   0  0  0  0  0  0
    4.7252    0.8814   -1.0842 H   0  0  0  0  0  0
    4.1056   -2.6442   -0.5282 H   0  0  0  0  0  0
    2.5783    2.1455   -0.3092 H   0  0  0  0  0  0
    3.2513    3.2457    3.8231 H   0  0  0  0  0  0
    8.1160   -0.3920   -0.3711 H   0  0  0  0  0  0
    2.2831    4.5022   -0.8845 H   0  0  0  0  0  0
    2.9435    5.6222    3.2214 H   0  0  0  0  0  0
  1  2  1  0  0  0
  1  3  1  0  0  0
  1  4  2  0  0  0
  2  5  1  0  0  0
  2  6  1  0  0  0
  2 22  1  0  0  0
  3  7  1  0  0  0
  3  8  1  0  0  0
  3 23  1  0  0  0
  4  9  1  0  0  0
  4 24  1  0  0  0
  5 10  1  0  0  0
  5 11  2  0  0  0
  6 12  1  0  0  0
  6 13  1  0  0  0
  6 14  1  0  0  0
  7 15  1  0  0  0
  7 16  1  0  0  0
  7 25  1  0  0  0
  8 26  1  0  0  0
  9 15  2  0  0  0
  9 27  1  0  0  0
 10 17  2  0  0  0
 10 28  1  0  0  0
 11 18  1  0  0  0
 11 29  1  0  0  0
 15 19  1  0  0  0
 16 30  1  0  0  0
 17 20  1  0  0  0
 17 31  1  0  0  0
 18 20  2  0  0  0
 18 32  1  0  0  0
 20 21  1  0  0  0
M  END
> <i_ionizer_Ion_state_n>
0

> <i_ionizer_Tot_Q>
0

> <s_ionizer_Ion_centers>


> <s_ionizer_Ion_types>


> <s_ionizer_Ion_ctrs_in>


> <r_ionizer_Ionization_penalty>
0

> <r_ionizer_Ionization_penalty_charging>
0

> <r_ionizer_Ionization_penalty_neutral>
0

> <s_st_Chirality_1>
3_S_8_7_1_23

> <s_st_Chirality_2>
7_S_16_15_3_25

> <s_st_Chirality_3>
2_R_6_1_5_22

> <s_st_EZ_1>
3_1_4_9_Z

> <i_mmod_Serial_Number-OPLS-2005>
881

> <i_i_glide_lignum>
869

> <r_i_docking_score>
-6.82309

> <r_i_glide_gscore>
-6.82309

> <r_i_glide_lipo>
-1.91286

> <r_i_glide_hbond>
-0.811683

> <r_i_glide_metal>
0

> <r_i_glide_eburp>
-0.84464

> <r_i_glide_evdw>
-24.2073

> <r_i_glide_ecoul>
-6.48409

> <r_i_glide_erotb>
0.295065

> <r_i_glide_esite>
-0.963975

> <r_i_glide_emodel>
-42.3899

> <r_i_glide_energy>
-30.6914

> <r_i_glide_einternal>
11.6084

> <i_i_glide_confnum>
2

> <i_i_glide_posenum>
602

$$$$
C00398
                    3D
 Structure written by MMmdl.
 25 26  0  0  1  0            999 V2000
    3.3985    1.0002    3.7783 C   0  0  0  0  0  0
    2.7719    2.2390    3.4520 C   0  0  0  0  0  0
    4.7213    1.2826    4.2723 C   0  0  0  0  0  0
    2.6470   -0.1803    3.5647 C   0  0  0  0  0  0
    3.7024    3.2141    3.7488 N   0  0  0  0  0  0
    1.4638    2.3020    2.9387 C   0  0  0  0  0  0
    4.8655    2.6467    4.2388 C   0  0  0  0  0  0
    5.7480    0.2935    4.7329 C   0  0  0  0  0  0
    1.3353   -0.1278    3.0505 C   0  0  0  0  0  0
    0.7430    1.1107    2.7374 C   0  0  0  0  0  0
    5.8618    0.2523    6.2629 C   0  0  0  0  0  0
    3.0852   -1.1387    3.8002 H   0  0  0  0  0  0
    3.5771    4.2099    3.6353 H   0  0  0  0  0  0
    1.0160    3.2555    2.7010 H   0  0  0  0  0  0
    5.7052    3.2638    4.5247 H   0  0  0  0  0  0
    5.4998   -0.7001    4.3572 H   0  0  0  0  0  0
    6.7172    0.5445    4.2999 H   0  0  0  0  0  0
    0.7809   -1.0421    2.8963 H   0  0  0  0  0  0
   -0.2625    1.1460    2.3439 H   0  0  0  0  0  0
    6.1039    1.2419    6.6525 H   0  0  0  0  0  0
    4.9099   -0.0437    6.7056 H   0  0  0  0  0  0
    6.9522   -0.6988    7.7082 H   0  0  0  0  0  0
    6.6738   -1.6224    6.3714 H   0  0  0  0  0  0
    6.9018   -0.6946    6.6993 N   0  3  0  0  0  0
    7.7953   -0.4145    6.3204 H   0  0  0  0  0  0
  1  2  2  0  0  0
  1  3  1  0  0  0
  1  4  1  0  0  0
  2  5  1  0  0  0
  2  6  1  0  0  0
  3  7  2  0  0  0
  3  8  1  0  0  0
  4  9  2  0  0  0
  4 12  1  0  0  0
  5  7  1  0  0  0
  5 13  1  0  0  0
  6 10  2  0  0  0
  6 14  1  0  0  0
  7 15  1  0  0  0
  8 11  1  0  0  0
  8 16  1  0  0  0
  8 17  1  0  0  0
  9 10  1  0  0  0
  9 18  1  0  0  0
 10 19  1  0  0  0
 11 20  1  0  0  0
 11 21  1  0  0  0
 11 24  1  0  0  0
 22 24  1  0  0  0
 23 24  1  0  0  0
 24 25  1  0  0  0
M  CHG  1  24   1
M  END
> <i_ionizer_Ion_state_n>
1

> <i_ionizer_Tot_Q>
1

> <s_ionizer_Ion_centers>
24

> <s_ionizer_Ion_types>
N5

> <s_ionizer_Ion_ctrs_in>
12

> <r_ionizer_Ionization_penalty>
0.000187331

> <r_ionizer_Ionization_penalty_charging>
0.000187331

> <r_ionizer_Ionization_penalty_neutral>
0

> <i_mmod_Serial_Number-OPLS-2005>
224

> <i_i_glide_lignum>
222

> <r_i_docking_score>
-6.82184

> <r_i_glide_gscore>
-6.82184

> <r_i_glide_lipo>
-1.03741

> <r_i_glide_hbond>
-0.73336

> <r_i_glide_metal>
0

> <r_i_glide_eburp>
-2.5

> <r_i_glide_evdw>
-18.7321

> <r_i_glide_ecoul>
-7.47098

> <r_i_glide_erotb>
0

> <r_i_glide_esite>
-0.305404

> <r_i_glide_emodel>
-44.3746

> <r_i_glide_energy>
-26.2031

> <r_i_glide_einternal>
0.528188

> <i_i_glide_confnum>
1

> <i_i_glide_posenum>
548

$$$$
C06241
                    3D
 Structure written by MMmdl.
 42 42  0  0  1  0            999 V2000
    2.8085    1.6339    1.8745 C   0  0  1  0  0  0
    4.1558    1.3011    2.5730 C   0  0  1  0  0  0
    1.7672    1.9044    2.8225 O   0  0  0  0  0  0
    2.8849    2.8241    0.8797 C   0  0  1  0  0  0
    3.9327    0.2376    3.6613 C   0  0  2  0  0  0
    5.0959    0.7828    1.5782 N   0  0  0  0  0  0
    1.4987    0.9323    3.8001 C   0  0  2  0  0  0
    3.2900    4.1778    1.5173 C   0  0  1  0  0  0
    3.7784    2.4814   -0.1657 O   0  0  0  0  0  0
    2.8011    0.6871    4.5993 C   0  0  0  0  0  0
    5.1011    0.1018    4.4476 O   0  0  0  0  0  0
    4.9103   -0.3030    0.8131 C   0  0  0  0  0  0
    0.8937   -0.4031    3.1583 C   0  0  0  0  0  0
    0.5234    1.4091    4.6967 O   0  0  0  0  0  0
    2.2245    4.7336    2.4908 C   0  0  0  0  0  0
    4.4702    3.9724    2.2651 O   0  0  0  0  0  0
    6.0533   -0.6612   -0.1296 C   0  0  0  0  0  0
    3.8959   -0.9984    0.8426 O   0  0  0  0  0  0
    1.3033   -1.4855    3.6311 O   0  0  0  0  0  0
    0.9396    4.7833    1.8897 O   0  0  0  0  0  0
   -0.4589    4.9440    3.0009 P   0  0  0  0  0  0
   -0.1789    6.3021    3.6823 O   0  0  0  0  0  0
    2.5166    0.7549    1.2991 H   0  0  0  0  0  0
    4.5448    2.2000    3.0548 H   0  0  0  0  0  0
    1.9048    2.9544    0.4195 H   0  0  0  0  0  0
    3.7034   -0.7302    3.2136 H   0  0  0  0  0  0
    5.9547    1.2999    1.4606 H   0  0  0  0  0  0
    3.4865    4.9089    0.7321 H   0  0  0  0  0  0
    3.9720    3.2616   -0.6617 H   0  0  0  0  0  0
    2.6197   -0.0559    5.3775 H   0  0  0  0  0  0
    3.0736    1.6161    5.1034 H   0  0  0  0  0  0
    4.9882   -0.6384    5.0241 H   0  0  0  0  0  0
   -0.3145    1.3202    4.2692 H   0  0  0  0  0  0
    2.1072    4.0742    3.3491 H   0  0  0  0  0  0
    2.5230    5.6981    2.9037 H   0  0  0  0  0  0
    4.8275    4.8330    2.4747 H   0  0  0  0  0  0
    5.8101   -1.5500   -0.7127 H   0  0  0  0  0  0
    6.2476    0.1587   -0.8215 H   0  0  0  0  0  0
    6.9636   -0.8622    0.4357 H   0  0  0  0  0  0
    0.0993   -0.2490    2.2037 O   0  5  0  0  0  0
   -1.6575    4.9080    2.0272 O   0  5  0  0  0  0
   -0.2834    3.6971    3.8950 O   0  5  0  0  0  0
  1  2  1  0  0  0
  1  3  1  0  0  0
  1  4  1  0  0  0
  1 23  1  0  0  0
  2  5  1  0  0  0
  2  6  1  0  0  0
  2 24  1  0  0  0
  3  7  1  0  0  0
  4  8  1  0  0  0
  4  9  1  0  0  0
  4 25  1  0  0  0
  5 10  1  0  0  0
  5 11  1  0  0  0
  5 26  1  0  0  0
  6 12  1  0  0  0
  6 27  1  0  0  0
  7 13  1  0  0  0
  7 14  1  0  0  0
  7 10  1  0  0  0
  8 15  1  0  0  0
  8 16  1  0  0  0
  8 28  1  0  0  0
  9 29  1  0  0  0
 10 30  1  0  0  0
 10 31  1  0  0  0
 11 32  1  0  0  0
 12 17  1  0  0  0
 12 18  2  0  0  0
 13 19  2  0  0  0
 13 40  1  0  0  0
 14 33  1  0  0  0
 15 20  1  0  0  0
 15 34  1  0  0  0
 15 35  1  0  0  0
 16 36  1  0  0  0
 17 37  1  0  0  0
 17 38  1  0  0  0
 17 39  1  0  0  0
 20 21  1  0  0  0
 21 22  2  0  0  0
 21 41  1  0  0  0
 21 42  1  0  0  0
M  CHG  3  40  -1  41  -1  42  -1
M  END
> <i_ionizer_Ion_state_n>
7

> <i_ionizer_Tot_Q>
-3

> <s_ionizer_Ion_centers>
40_41_42

> <s_ionizer_Ion_types>
OM_OM_OM

> <s_ionizer_Ion_ctrs_in>
19_23_24

> <r_ionizer_Ionization_penalty>
0.000607108

> <r_ionizer_Ionization_penalty_charging>
0.000607108

> <r_ionizer_Ionization_penalty_neutral>
0

> <s_st_Chirality_1>
1_R_3_4_2_23

> <s_st_Chirality_2>
2_R_6_1_5_24

> <s_st_Chirality_3>
4_S_9_8_1_25

> <s_st_Chirality_4>
5_S_11_2_10_26

> <s_st_Chirality_5>
8_R_16_4_15_28

> <s_st_Chirality_6>
7_R_3_14_13_10

> <i_mmod_Serial_Number-OPLS-2005>
871

> <i_i_glide_lignum>
859

> <r_i_docking_score>
-6.8139

> <r_i_glide_gscore>
-6.8139

> <r_i_glide_lipo>
-0.739643

> <r_i_glide_hbond>
-2.28879

> <r_i_glide_metal>
0

> <r_i_glide_eburp>
-0.573092

> <r_i_glide_evdw>
-18.7736

> <r_i_glide_ecoul>
-15.028

> <r_i_glide_erotb>
0.745482

> <r_i_glide_esite>
-0.953177

> <r_i_glide_emodel>
-81.9943

> <r_i_glide_energy>
-33.8015

> <r_i_glide_einternal>
13.2254

> <i_i_glide_confnum>
29

> <i_i_glide_posenum>
8

$$$$
C03150
                    3D
 Structure written by MMmdl.
 33 34  0  0  1  0            999 V2000
    3.7270    2.3262    2.3308 C   0  0  2  0  0  0
    2.9922    3.5743    1.9493 N   0  3  0  0  0  0
    2.9434    1.2101    1.8782 O   0  0  0  0  0  0
    3.7336    2.1785    3.8476 C   0  0  1  0  0  0
    1.6256    3.7484    2.2990 C   0  0  0  0  0  0
    3.6172    4.6211    1.2153 C   0  0  0  0  0  0
    2.8962    0.1911    2.8354 C   0  0  1  0  0  0
    3.6893    0.6810    4.0563 C   0  0  1  0  0  0
    4.9087    2.7341    4.4064 O   0  0  0  0  0  0
    0.9089    4.9131    1.9481 C   0  0  0  0  0  0
    2.9096    5.7801    0.8489 C   0  0  0  0  0  0
    1.4190   -0.0468    3.1873 C   0  0  0  0  0  0
    4.9767    0.0999    4.1450 O   0  0  0  0  0  0
    1.5593    5.9257    1.2102 C   0  0  0  0  0  0
   -0.5408    5.0333    2.3218 C   0  0  0  0  0  0
    1.2982   -1.1001    4.1202 O   0  0  0  0  0  0
   -1.1604    6.1534    1.9409 N   0  0  0  0  0  0
   -1.0994    4.1676    2.9917 O   0  0  0  0  0  0
    4.7268    2.4377    1.9082 H   0  0  0  0  0  0
    2.8698    2.6692    4.2992 H   0  0  0  0  0  0
    1.1515    2.9472    2.8480 H   0  0  0  0  0  0
    4.6546    4.4999    0.9410 H   0  0  0  0  0  0
    3.3588   -0.7286    2.4714 H   0  0  0  0  0  0
    3.1340    0.4551    4.9677 H   0  0  0  0  0  0
    5.6418    2.2111    4.1138 H   0  0  0  0  0  0
    3.4035    6.5587    0.2854 H   0  0  0  0  0  0
    0.9634    0.8560    3.5952 H   0  0  0  0  0  0
    0.8596   -0.3134    2.2902 H   0  0  0  0  0  0
    4.8900   -0.7476    4.5581 H   0  0  0  0  0  0
    1.0303    6.8181    0.9076 H   0  0  0  0  0  0
    1.8551   -0.9131    4.8613 H   0  0  0  0  0  0
   -2.1298    6.2921    2.1866 H   0  0  0  0  0  0
   -0.6612    6.8575    1.4178 H   0  0  0  0  0  0
  1  2  1  0  0  0
  1  3  1  0  0  0
  1  4  1  0  0  0
  1 19  1  0  0  0
  2  5  1  0  0  0
  2  6  2  0  0  0
  3  7  1  0  0  0
  4  8  1  0  0  0
  4  9  1  0  0  0
  4 20  1  0  0  0
  5 10  2  0  0  0
  5 21  1  0  0  0
  6 11  1  0  0  0
  6 22  1  0  0  0
  7 12  1  0  0  0
  7  8  1  0  0  0
  7 23  1  0  0  0
  8 13  1  0  0  0
  8 24  1  0  0  0
  9 25  1  0  0  0
 10 14  1  0  0  0
 10 15  1  0  0  0
 11 14  2  0  0  0
 11 26  1  0  0  0
 12 16  1  0  0  0
 12 27  1  0  0  0
 12 28  1  0  0  0
 13 29  1  0  0  0
 14 30  1  0  0  0
 15 17  1  0  0  0
 15 18  2  0  0  0
 16 31  1  0  0  0
 17 32  1  0  0  0
 17 33  1  0  0  0
M  CHG  1   2   1
M  END
> <i_ionizer_Ion_state_n>
0

> <i_ionizer_Tot_Q>
1

> <s_ionizer_Ion_centers>


> <s_ionizer_Ion_types>


> <s_ionizer_Ion_ctrs_in>


> <r_ionizer_Ionization_penalty>
0

> <r_ionizer_Ionization_penalty_charging>
0

> <r_ionizer_Ionization_penalty_neutral>
0

> <s_st_Chirality_1>
1_R_3_2_4_19

> <s_st_Chirality_2>
4_R_9_1_8_20

> <s_st_Chirality_3>
7_R_3_8_12_23

> <s_st_Chirality_4>
8_R_13_4_7_24

> <i_mmod_Serial_Number-OPLS-2005>
524

> <i_i_glide_lignum>
518

> <r_i_docking_score>
-6.81374

> <r_i_glide_gscore>
-6.81374

> <r_i_glide_lipo>
-0.839692

> <r_i_glide_hbond>
-1.08459

> <r_i_glide_metal>
0

> <r_i_glide_eburp>
-1.85415

> <r_i_glide_evdw>
-25.4577

> <r_i_glide_ecoul>
-11.7294

> <r_i_glide_erotb>
0.617562

> <r_i_glide_esite>
-0.443317

> <r_i_glide_emodel>
-55.7672

> <r_i_glide_energy>
-37.1871

> <r_i_glide_einternal>
1.04053

> <i_i_glide_confnum>
9

> <i_i_glide_posenum>
779

$$$$
C02166
                    3D
 Structure written by MMmdl.
 88 87  0  0  1  0            999 V2000
   14.0111    5.9643   12.3725 C   0  0  2  0  0  0
   14.1435    5.3690   10.9524 C   0  0  0  0  0  0
   12.6008    5.8640   12.7524 N   0  0  0  0  0  0
   14.4881    7.4344   12.3530 C   0  0  0  0  0  0
   13.6546    3.6149   10.9382 S   0  0  0  0  0  0
   12.0856    6.1973   13.9469 C   0  0  0  0  0  0
   15.7134    7.6958   11.8633 N   0  0  0  0  0  0
   13.7341    8.3145   12.7671 O   0  0  0  0  0  0
   13.1064    3.4019    9.2118 C   0  0  1  0  0  0
   10.5573    6.1934   14.0525 C   0  0  0  0  0  0
   12.7701    6.5082   14.9205 O   0  0  0  0  0  0
   16.2803    9.0242   11.6404 C   0  0  0  0  0  0
   14.2894    3.5560    8.2164 C   0  0  2  0  0  0
   12.2851    2.1248    9.0400 C   0  0  0  0  0  0
   10.0278    7.1936   15.1062 C   0  0  0  0  0  0
   15.4052    9.8199   10.6731 C   0  0  0  0  0  0
   13.8912    3.5124    6.7197 C   0  0  0  0  0  0
   15.2275    2.5238    8.4514 O   0  0  0  0  0  0
   11.2027    1.9564    8.2590 C   0  0  0  0  0  0
    8.5379    7.5810   14.9422 C   0  0  1  0  0  0
   14.8992   10.8833   11.0944 O   0  0  0  0  0  0
   12.7866    4.5110    6.3262 C   0  0  0  0  0  0
   10.4859    0.7044    8.1490 C   0  0  0  0  0  0
    8.1934    7.9504   13.4913 C   0  0  0  0  0  0
   13.2354    5.9872    6.4027 C   0  0  0  0  0  0
    9.3047    0.6177    7.5162 C   0  0  0  0  0  0
    9.1429    8.1408   12.6983 O   0  0  0  0  0  0
   12.1693    6.9671    5.8996 C   0  0  0  0  0  0
    8.5613   -0.6218    7.3918 C   0  0  0  0  0  0
   11.0686    6.5093    5.5198 O   0  0  0  0  0  0
    7.4207   -0.7807    6.6935 C   0  0  0  0  0  0
    6.6775    0.2749    5.8923 C   0  0  0  0  0  0
    6.2387   -0.2951    4.5575 C   0  0  0  0  0  0
    5.0327   -0.1514    3.9777 C   0  0  0  0  0  0
    3.8526    0.6442    4.5070 C   0  0  0  0  0  0
    2.6068   -0.2295    4.7078 C   0  0  0  0  0  0
    1.3055    0.5839    4.6495 C   0  0  0  0  0  0
    0.9459    1.0244    3.2235 C   0  0  0  0  0  0
    0.5765   -0.1561    2.3185 C   0  0  0  0  0  0
   14.6205    5.3889   13.0723 H   0  0  0  0  0  0
   13.4933    5.9083   10.2637 H   0  0  0  0  0  0
   15.1623    5.4700   10.5746 H   0  0  0  0  0  0
   11.9554    5.5717   12.0310 H   0  0  0  0  0  0
   16.2976    6.9120   11.6031 H   0  0  0  0  0  0
   12.4096    4.2159    9.0075 H   0  0  0  0  0  0
   10.1177    6.3963   13.0749 H   0  0  0  0  0  0
   10.2375    5.1856   14.3189 H   0  0  0  0  0  0
   16.3921    9.5886   12.5673 H   0  0  0  0  0  0
   17.2796    8.9115   11.2188 H   0  0  0  0  0  0
   14.8046    4.4888    8.4431 H   0  0  0  0  0  0
   12.6261    1.2790    9.6177 H   0  0  0  0  0  0
   10.1938    6.7786   16.1014 H   0  0  0  0  0  0
   10.6356    8.0987   15.0624 H   0  0  0  0  0  0
   14.7727    3.7046    6.1065 H   0  0  0  0  0  0
   13.5665    2.5117    6.4367 H   0  0  0  0  0  0
   14.8122    1.6953    8.2668 H   0  0  0  0  0  0
   10.8317    2.7854    7.6788 H   0  0  0  0  0  0
    8.3321    8.4277   15.5899 H   0  0  0  0  0  0
   12.4147    4.2798    5.3273 H   0  0  0  0  0  0
   11.9441    4.3621    7.0032 H   0  0  0  0  0  0
   10.9144   -0.1851    8.5889 H   0  0  0  0  0  0
    6.6864    6.8500   15.3533 H   0  0  0  0  0  0
    7.7365    5.7106   14.7790 H   0  0  0  0  0  0
   13.4738    6.2487    7.4338 H   0  0  0  0  0  0
   14.1417    6.1466    5.8194 H   0  0  0  0  0  0
    8.9048    1.5237    7.0879 H   0  0  0  0  0  0
    8.9500   -1.4924    7.9003 H   0  0  0  0  0  0
    6.9676   -1.7615    6.6846 H   0  0  0  0  0  0
    5.7887    0.5736    6.4482 H   0  0  0  0  0  0
    7.2561    1.1842    5.7513 H   0  0  0  0  0  0
    6.9889   -0.8711    4.0353 H   0  0  0  0  0  0
    4.8656   -0.6383    3.0279 H   0  0  0  0  0  0
    4.1039    1.1529    5.4363 H   0  0  0  0  0  0
    3.6383    1.4309    3.7832 H   0  0  0  0  0  0
    2.5782   -1.0078    3.9442 H   0  0  0  0  0  0
    2.6758   -0.7402    5.6694 H   0  0  0  0  0  0
    0.4884   -0.0083    5.0612 H   0  0  0  0  0  0
    1.3993    1.4631    5.2879 H   0  0  0  0  0  0
    0.1126    1.7269    3.2550 H   0  0  0  0  0  0
    1.7873    1.5622    2.7848 H   0  0  0  0  0  0
    0.3373    0.1868    1.3118 H   0  0  0  0  0  0
    1.4009   -0.8647    2.2392 H   0  0  0  0  0  0
   -0.2909   -0.6924    2.7037 H   0  0  0  0  0  0
   15.2999    9.3897    9.5040 O   0  5  0  0  0  0
    7.6372    6.5065   15.3924 N   0  3  0  0  0  0
    7.8602    6.2491   16.3427 H   0  0  0  0  0  0
    6.9799    8.0511   13.2033 O   0  5  0  0  0  0
   12.4858    8.1766    5.8981 O   0  5  0  0  0  0
  1  2  1  0  0  0
  1  3  1  0  0  0
  1  4  1  0  0  0
  1 40  1  0  0  0
  2  5  1  0  0  0
  2 41  1  0  0  0
  2 42  1  0  0  0
  3  6  1  0  0  0
  3 43  1  0  0  0
  4  7  1  0  0  0
  4  8  2  0  0  0
  5  9  1  0  0  0
  6 10  1  0  0  0
  6 11  2  0  0  0
  7 12  1  0  0  0
  7 44  1  0  0  0
  9 13  1  0  0  0
  9 14  1  0  0  0
  9 45  1  0  0  0
 10 15  1  0  0  0
 10 46  1  0  0  0
 10 47  1  0  0  0
 12 16  1  0  0  0
 12 48  1  0  0  0
 12 49  1  0  0  0
 13 17  1  0  0  0
 13 18  1  0  0  0
 13 50  1  0  0  0
 14 19  2  0  0  0
 14 51  1  0  0  0
 15 20  1  0  0  0
 15 52  1  0  0  0
 15 53  1  0  0  0
 16 21  2  0  0  0
 16 84  1  0  0  0
 17 22  1  0  0  0
 17 54  1  0  0  0
 17 55  1  0  0  0
 18 56  1  0  0  0
 19 23  1  0  0  0
 19 57  1  0  0  0
 20 24  1  0  0  0
 20 58  1  0  0  0
 20 85  1  0  0  0
 22 25  1  0  0  0
 22 59  1  0  0  0
 22 60  1  0  0  0
 23 26  2  0  0  0
 23 61  1  0  0  0
 24 27  2  0  0  0
 24 87  1  0  0  0
 25 28  1  0  0  0
 25 64  1  0  0  0
 25 65  1  0  0  0
 26 29  1  0  0  0
 26 66  1  0  0  0
 28 30  2  0  0  0
 28 88  1  0  0  0
 29 31  2  0  0  0
 29 67  1  0  0  0
 31 32  1  0  0  0
 31 68  1  0  0  0
 32 33  1  0  0  0
 32 69  1  0  0  0
 32 70  1  0  0  0
 33 34  2  0  0  0
 33 71  1  0  0  0
 34 35  1  0  0  0
 34 72  1  0  0  0
 35 36  1  0  0  0
 35 73  1  0  0  0
 35 74  1  0  0  0
 36 37  1  0  0  0
 36 75  1  0  0  0
 36 76  1  0  0  0
 37 38  1  0  0  0
 37 77  1  0  0  0
 37 78  1  0  0  0
 38 39  1  0  0  0
 38 79  1  0  0  0
 38 80  1  0  0  0
 39 81  1  0  0  0
 39 82  1  0  0  0
 39 83  1  0  0  0
 62 85  1  0  0  0
 63 85  1  0  0  0
 85 86  1  0  0  0
M  CHG  4  84  -1  85   1  87  -1  88  -1
M  END
> <i_ionizer_Ion_state_n>
15

> <i_ionizer_Tot_Q>
-2

> <s_ionizer_Ion_centers>
84_85_87_88

> <s_ionizer_Ion_types>
OM_N5_OM_OM

> <s_ionizer_Ion_ctrs_in>
21_26_29_33

> <r_ionizer_Ionization_penalty>
0.0019639

> <r_ionizer_Ionization_penalty_charging>
0.0019639

> <r_ionizer_Ionization_penalty_neutral>
0

> <s_st_Chirality_1>
1_R_3_2_4_40

> <s_st_Chirality_2>
9_R_5_13_14_45

> <s_st_Chirality_3>
13_S_18_9_17_50

> <s_st_Chirality_4>
20_S_85_24_15_58

> <s_st_EZ_1>
9_14_19_23_E

> <s_st_EZ_2>
26_29_31_32_Z

> <s_st_EZ_3>
32_33_34_35_Z

> <i_mmod_Serial_Number-OPLS-2005>
475

> <i_i_glide_lignum>
470

> <r_i_docking_score>
-6.81142

> <r_i_glide_gscore>
-6.81142

> <r_i_glide_lipo>
-1.6712

> <r_i_glide_hbond>
-2.60706

> <r_i_glide_metal>
0

> <r_i_glide_eburp>
-0.4

> <r_i_glide_evdw>
-22.3136

> <r_i_glide_ecoul>
-13.6495

> <r_i_glide_erotb>
1.27293

> <r_i_glide_esite>
-0.256058

> <r_i_glide_emodel>
-95.5447

> <r_i_glide_energy>
-35.9631

> <r_i_glide_einternal>
22.3838

> <i_i_glide_confnum>
1069

> <i_i_glide_posenum>
20

$$$$
C00526
                    3D
 Structure written by MMmdl.
 28 29  0  0  1  0            999 V2000
    1.6629    1.9003    3.3016 C   0  0  2  0  0  0
    1.8903    3.2164    2.5936 N   0  0  0  0  0  0
    2.6896    1.7079    4.2755 O   0  0  0  0  0  0
    1.8212    0.7420    2.3238 C   0  0  0  0  0  0
    0.9032    4.2198    2.6959 C   0  0  0  0  0  0
    3.0244    3.4536    1.8279 C   0  0  0  0  0  0
    3.1871    0.3857    4.2430 C   0  0  1  0  0  0
    2.3726   -0.3731    3.1845 C   0  0  1  0  0  0
    1.1430    5.4189    2.0250 N   0  0  0  0  0  0
   -0.1366    4.0695    3.3356 O   0  0  0  0  0  0
    3.2451    4.6208    1.1781 C   0  0  0  0  0  0
    4.6879    0.3945    3.9112 C   0  0  0  0  0  0
    1.3351   -1.1271    3.7766 O   0  0  0  0  0  0
    2.2720    5.7054    1.2539 C   0  0  0  0  0  0
    5.4518    0.5702    5.0862 O   0  0  0  0  0  0
    2.3836    6.7986    0.7041 O   0  0  0  0  0  0
    0.6568    1.9465    3.7216 H   0  0  0  0  0  0
    0.8385    0.4528    1.9482 H   0  0  0  0  0  0
    2.4653    0.9846    1.4777 H   0  0  0  0  0  0
    3.7752    2.6844    1.7322 H   0  0  0  0  0  0
    3.0149   -0.0937    5.2087 H   0  0  0  0  0  0
    3.0236   -1.0211    2.5962 H   0  0  0  0  0  0
    0.4395    6.1387    2.0994 H   0  0  0  0  0  0
    4.1464    4.7535    0.5972 H   0  0  0  0  0  0
    4.9880   -0.5291    3.4161 H   0  0  0  0  0  0
    4.9138    1.2142    3.2287 H   0  0  0  0  0  0
    1.7028   -1.6230    4.4936 H   0  0  0  0  0  0
    5.4756   -0.2500    5.5558 H   0  0  0  0  0  0
  1  2  1  0  0  0
  1  3  1  0  0  0
  1  4  1  0  0  0
  1 17  1  0  0  0
  2  5  1  0  0  0
  2  6  1  0  0  0
  3  7  1  0  0  0
  4  8  1  0  0  0
  4 18  1  0  0  0
  4 19  1  0  0  0
  5  9  1  0  0  0
  5 10  2  0  0  0
  6 11  2  0  0  0
  6 20  1  0  0  0
  7 12  1  0  0  0
  7  8  1  0  0  0
  7 21  1  0  0  0
  8 13  1  0  0  0
  8 22  1  0  0  0
  9 14  1  0  0  0
  9 23  1  0  0  0
 11 14  1  0  0  0
 11 24  1  0  0  0
 12 15  1  0  0  0
 12 25  1  0  0  0
 12 26  1  0  0  0
 13 27  1  0  0  0
 14 16  2  0  0  0
 15 28  1  0  0  0
M  END
> <i_ionizer_Ion_state_n>
0

> <i_ionizer_Tot_Q>
0

> <s_ionizer_Ion_centers>


> <s_ionizer_Ion_types>


> <s_ionizer_Ion_ctrs_in>


> <r_ionizer_Ionization_penalty>
0

> <r_ionizer_Ionization_penalty_charging>
0

> <r_ionizer_Ionization_penalty_neutral>
0

> <s_st_Chirality_1>
1_R_3_2_4_17

> <s_st_Chirality_2>
7_R_3_8_12_21

> <s_st_Chirality_3>
8_S_13_7_4_22

> <i_mmod_Serial_Number-OPLS-2005>
268

> <i_i_glide_lignum>
266

> <r_i_docking_score>
-6.80034

> <r_i_glide_gscore>
-6.80034

> <r_i_glide_lipo>
-0.667981

> <r_i_glide_hbond>
-0.922446

> <r_i_glide_metal>
0

> <r_i_glide_eburp>
-2.05904

> <r_i_glide_evdw>
-27.2335

> <r_i_glide_ecoul>
-7.23719

> <r_i_glide_erotb>
0.747676

> <r_i_glide_esite>
-0.996151

> <r_i_glide_emodel>
-47.5367

> <r_i_glide_energy>
-34.4707

> <r_i_glide_einternal>
3.81688

> <i_i_glide_confnum>
11

> <i_i_glide_posenum>
913

$$$$
C05657
                    3D
 Structure written by MMmdl.
 26 27  0  0  1  0            999 V2000
    3.3653    2.6889    3.5826 C   0  0  0  0  0  0
    2.2646    3.4467    3.0480 C   0  0  0  0  0  0
    3.1414    1.3118    3.2885 C   0  0  0  0  0  0
    4.5455    3.0156    4.2920 C   0  0  0  0  0  0
    1.4205    2.5417    2.4562 C   0  0  0  0  0  0
    2.0691    4.9326    3.1138 C   0  0  0  0  0  0
    1.9448    1.2692    2.6017 N   0  0  0  0  0  0
    4.0455    0.3082    3.6815 C   0  0  0  0  0  0
    5.4585    2.0178    4.6904 C   0  0  0  0  0  0
    0.7241    5.3780    2.4940 C   0  0  2  0  0  0
    5.2096    0.6649    4.3861 C   0  0  0  0  0  0
   -0.4655    4.5032    2.9302 C   0  0  0  0  0  0
    0.8213    5.3536    1.0826 O   0  0  0  0  0  0
    6.0936   -0.2995    4.7721 O   0  0  0  0  0  0
   -0.3133    3.7080    3.8842 O   0  0  0  0  0  0
    4.7486    4.0492    4.5308 H   0  0  0  0  0  0
    0.4865    2.7046    1.9384 H   0  0  0  0  0  0
    2.1369    5.2817    4.1452 H   0  0  0  0  0  0
    2.9018    5.4025    2.5892 H   0  0  0  0  0  0
    1.4937    0.4409    2.2412 H   0  0  0  0  0  0
    3.8476   -0.7265    3.4437 H   0  0  0  0  0  0
    6.3507    2.2986    5.2306 H   0  0  0  0  0  0
    0.4944    6.3965    2.8093 H   0  0  0  0  0  0
    1.3097    4.5765    0.8528 H   0  0  0  0  0  0
    5.6721   -1.0802    5.0965 H   0  0  0  0  0  0
   -1.5346    4.6641    2.2992 O   0  5  0  0  0  0
  1  2  1  0  0  0
  1  3  1  0  0  0
  1  4  2  0  0  0
  2  5  2  0  0  0
  2  6  1  0  0  0
  3  7  1  0  0  0
  3  8  2  0  0  0
  4  9  1  0  0  0
  4 16  1  0  0  0
  5  7  1  0  0  0
  5 17  1  0  0  0
  6 10  1  0  0  0
  6 18  1  0  0  0
  6 19  1  0  0  0
  7 20  1  0  0  0
  8 11  1  0  0  0
  8 21  1  0  0  0
  9 11  2  0  0  0
  9 22  1  0  0  0
 10 12  1  0  0  0
 10 13  1  0  0  0
 10 23  1  0  0  0
 11 14  1  0  0  0
 12 15  2  0  0  0
 12 26  1  0  0  0
 13 24  1  0  0  0
 14 25  1  0  0  0
M  CHG  1  26  -1
M  END
> <i_ionizer_Ion_state_n>
2

> <i_ionizer_Tot_Q>
-1

> <s_ionizer_Ion_centers>
26

> <s_ionizer_Ion_types>
OM

> <s_ionizer_Ion_ctrs_in>
15

> <r_ionizer_Ionization_penalty>
0.00118438

> <r_ionizer_Ionization_penalty_charging>
0.00059219

> <r_ionizer_Ionization_penalty_neutral>
0.00059219

> <s_st_Chirality_1>
10_R_13_12_6_23

> <i_mmod_Serial_Number-OPLS-2005>
777

> <i_i_glide_lignum>
768

> <r_i_docking_score>
-6.78435

> <r_i_glide_gscore>
-6.78435

> <r_i_glide_lipo>
-0.894092

> <r_i_glide_hbond>
-1.76965

> <r_i_glide_metal>
0

> <r_i_glide_eburp>
-2.51965

> <r_i_glide_evdw>
-13.0218

> <r_i_glide_ecoul>
-11.0498

> <r_i_glide_erotb>
0.794195

> <r_i_glide_esite>
-0.248426

> <r_i_glide_emodel>
-51.8125

> <r_i_glide_energy>
-24.0717

> <r_i_glide_einternal>
4.81715

> <i_i_glide_confnum>
8

> <i_i_glide_posenum>
954

$$$$
C01185
                    3D
 Structure written by MMmdl.
 34 35  0  0  1  0            999 V2000
    2.6488   -0.1015    1.6485 C   0  0  2  0  0  0
    3.9137    0.2830    0.9418 N   0  3  0  0  0  0
    1.7068    0.9616    1.4923 O   0  0  0  0  0  0
    2.9063   -0.1779    3.1487 C   0  0  1  0  0  0
    4.6650   -0.6912    0.2318 C   0  0  0  0  0  0
    4.4212    1.6131    0.9608 C   0  0  0  0  0  0
    1.0571    1.2581    2.7077 C   0  0  1  0  0  0
    1.5952    0.2713    3.7548 C   0  0  1  0  0  0
    3.2292   -1.4967    3.5464 O   0  0  0  0  0  0
    5.8664   -0.3669   -0.4364 C   0  0  0  0  0  0
    5.6161    1.9485    0.2995 C   0  0  0  0  0  0
    1.3269    2.7190    3.1024 C   0  0  0  0  0  0
    0.7096   -0.8011    4.0059 O   0  0  0  0  0  0
    6.3359    0.9632   -0.3970 C   0  0  0  0  0  0
    6.6311   -1.4284   -1.1768 C   0  0  0  0  0  0
    0.9245    3.6013    2.0690 O   0  0  0  0  0  0
    6.0894   -2.5418   -1.3555 O   0  0  0  0  0  0
   -0.1628    4.9338    2.5678 P   0  0  0  0  0  0
   -0.0384    5.9074    1.3751 O   0  0  0  0  0  0
    2.3577   -1.0579    1.2115 H   0  0  0  0  0  0
    3.7261    0.4787    3.4447 H   0  0  0  0  0  0
    4.2769   -1.6998    0.2284 H   0  0  0  0  0  0
    3.8636    2.3652    1.4985 H   0  0  0  0  0  0
   -0.0162    1.0879    2.6056 H   0  0  0  0  0  0
    1.7851    0.7974    4.6913 H   0  0  0  0  0  0
    3.5818   -1.4488    4.4240 H   0  0  0  0  0  0
    5.9817    2.9648    0.3270 H   0  0  0  0  0  0
    0.8608    2.9570    4.0591 H   0  0  0  0  0  0
    2.3982    2.8667    3.2379 H   0  0  0  0  0  0
    0.6452   -1.3034    3.1963 H   0  0  0  0  0  0
    7.2525    1.2380   -0.8996 H   0  0  0  0  0  0
    7.7821   -1.1663   -1.5903 O   0  5  0  0  0  0
   -1.5175    4.2051    2.7098 O   0  5  0  0  0  0
    0.5005    5.3945    3.8834 O   0  5  0  0  0  0
  1  2  1  0  0  0
  1  3  1  0  0  0
  1  4  1  0  0  0
  1 20  1  0  0  0
  2  5  1  0  0  0
  2  6  2  0  0  0
  3  7  1  0  0  0
  4  8  1  0  0  0
  4  9  1  0  0  0
  4 21  1  0  0  0
  5 10  2  0  0  0
  5 22  1  0  0  0
  6 11  1  0  0  0
  6 23  1  0  0  0
  7 12  1  0  0  0
  7  8  1  0  0  0
  7 24  1  0  0  0
  8 13  1  0  0  0
  8 25  1  0  0  0
  9 26  1  0  0  0
 10 14  1  0  0  0
 10 15  1  0  0  0
 11 14  2  0  0  0
 11 27  1  0  0  0
 12 16  1  0  0  0
 12 28  1  0  0  0
 12 29  1  0  0  0
 13 30  1  0  0  0
 14 31  1  0  0  0
 15 17  2  0  0  0
 15 32  1  0  0  0
 16 18  1  0  0  0
 18 19  2  0  0  0
 18 33  1  0  0  0
 18 34  1  0  0  0
M  CHG  4   2   1  32  -1  33  -1  34  -1
M  END
> <i_ionizer_Ion_state_n>
7

> <i_ionizer_Tot_Q>
-2

> <s_ionizer_Ion_centers>
32_33_34

> <s_ionizer_Ion_types>
OM_OM_OM

> <s_ionizer_Ion_ctrs_in>
17_20_21

> <r_ionizer_Ionization_penalty>
0.000607108

> <r_ionizer_Ionization_penalty_charging>
0.000607108

> <r_ionizer_Ionization_penalty_neutral>
0

> <s_st_Chirality_1>
1_R_3_2_4_20

> <s_st_Chirality_2>
4_R_9_1_8_21

> <s_st_Chirality_3>
7_R_3_8_12_24

> <s_st_Chirality_4>
8_R_13_4_7_25

> <i_mmod_Serial_Number-OPLS-2005>
418

> <i_i_glide_lignum>
414

> <r_i_docking_score>
-6.78203

> <r_i_glide_gscore>
-6.78203

> <r_i_glide_lipo>
-0.938524

> <r_i_glide_hbond>
-1.82334

> <r_i_glide_metal>
0

> <r_i_glide_eburp>
-1.26369

> <r_i_glide_evdw>
-18.7953

> <r_i_glide_ecoul>
-8.49199

> <r_i_glide_erotb>
0.581971

> <r_i_glide_esite>
-0.985634

> <r_i_glide_emodel>
-80.4536

> <r_i_glide_energy>
-27.2873

> <r_i_glide_einternal>
4.81938

> <i_i_glide_confnum>
35

> <i_i_glide_posenum>
692

$$$$
C01097
                    3D
 Structure written by MMmdl.
 27 27  0  0  1  0            999 V2000
    1.8870    1.7785    3.0642 C   0  0  1  0  0  0
    2.9158    1.3652    3.9689 O   0  0  0  0  0  0
    1.9953    0.8536    1.8399 C   0  0  1  0  0  0
    0.5172    1.8478    3.7697 C   0  0  0  0  0  0
    3.7011    0.3487    3.4208 C   0  0  1  0  0  0
    3.4645    0.4677    1.9041 C   0  0  1  0  0  0
    1.1569   -0.2877    1.9428 O   0  0  0  0  0  0
    0.2098    3.1388    4.2795 O   0  0  0  0  0  0
    5.1576    0.5968    3.8594 C   0  0  0  0  0  0
    3.2657   -0.9089    3.8940 O   0  0  0  0  0  0
    3.7796   -0.6971    1.1603 O   0  0  0  0  0  0
    0.1044    4.4863    3.0964 P   0  0  0  0  0  0
    5.3373    0.4998    5.2594 O   0  0  0  0  0  0
    1.1353    4.0781    2.0197 O   0  0  0  0  0  0
    2.1888    2.7793    2.7564 H   0  0  0  0  0  0
    1.7515    1.3760    0.9144 H   0  0  0  0  0  0
   -0.2763    1.5541    3.0829 H   0  0  0  0  0  0
    0.4828    1.1260    4.5857 H   0  0  0  0  0  0
    4.0671    1.2987    1.5332 H   0  0  0  0  0  0
    1.3422   -0.7057    2.7704 H   0  0  0  0  0  0
    5.7937   -0.1526    3.3868 H   0  0  0  0  0  0
    5.4837    1.5739    3.5007 H   0  0  0  0  0  0
    3.8141   -1.1312    4.6330 H   0  0  0  0  0  0
    3.6526   -0.4938    0.2447 H   0  0  0  0  0  0
    5.1826   -0.3956    5.5194 H   0  0  0  0  0  0
   -1.3797    4.4192    2.6717 O   0  5  0  0  0  0
    0.4961    5.6951    3.9740 O   0  5  0  0  0  0
  1  2  1  0  0  0
  1  3  1  0  0  0
  1  4  1  0  0  0
  1 15  1  0  0  0
  2  5  1  0  0  0
  3  6  1  0  0  0
  3  7  1  0  0  0
  3 16  1  0  0  0
  4  8  1  0  0  0
  4 17  1  0  0  0
  4 18  1  0  0  0
  5  9  1  0  0  0
  5 10  1  0  0  0
  5  6  1  0  0  0
  6 11  1  0  0  0
  6 19  1  0  0  0
  7 20  1  0  0  0
  8 12  1  0  0  0
  9 13  1  0  0  0
  9 21  1  0  0  0
  9 22  1  0  0  0
 10 23  1  0  0  0
 11 24  1  0  0  0
 12 14  2  0  0  0
 12 26  1  0  0  0
 12 27  1  0  0  0
 13 25  1  0  0  0
M  CHG  2  26  -1  27  -1
M  END
> <i_ionizer_Ion_state_n>
3

> <i_ionizer_Tot_Q>
-2

> <s_ionizer_Ion_centers>
26_27

> <s_ionizer_Ion_types>
OM_OM

> <s_ionizer_Ion_ctrs_in>
14_15

> <r_ionizer_Ionization_penalty>
1.49178e-05

> <r_ionizer_Ionization_penalty_charging>
1.49178e-05

> <r_ionizer_Ionization_penalty_neutral>
0

> <s_st_Chirality_1>
1_R_2_3_4_15

> <s_st_Chirality_2>
3_S_7_6_1_16

> <s_st_Chirality_3>
6_S_11_5_3_19

> <s_st_Chirality_4>
5_R_2_10_6_9

> <i_mmod_Serial_Number-OPLS-2005>
392

> <i_i_glide_lignum>
388

> <r_i_docking_score>
-6.77596

> <r_i_glide_gscore>
-6.77596

> <r_i_glide_lipo>
-0.433418

> <r_i_glide_hbond>
-2.09473

> <r_i_glide_metal>
0

> <r_i_glide_eburp>
-2.2324

> <r_i_glide_evdw>
-18.8388

> <r_i_glide_ecoul>
-14.7769

> <r_i_glide_erotb>
0.9087

> <r_i_glide_esite>
0.0606799

> <r_i_glide_emodel>
-64.3472

> <r_i_glide_energy>
-33.6157

> <r_i_glide_einternal>
14.7678

> <i_i_glide_confnum>
17

> <i_i_glide_posenum>
571

$$$$
C05576
                    3D
 Structure written by MMmdl.
 22 22  0  0  1  0            999 V2000
    2.6097    2.8041    3.1581 C   0  0  0  0  0  0
    2.2974    1.4713    3.5021 C   0  0  0  0  0  0
    3.8481    3.3519    3.5601 C   0  0  0  0  0  0
    1.6217    3.6311    2.3483 C   0  0  2  0  0  0
    3.2099    0.6965    4.2444 C   0  0  0  0  0  0
    4.7609    2.5779    4.3028 C   0  0  0  0  0  0
    2.3229    4.3802    1.2024 C   0  0  0  0  0  0
    0.9409    4.5784    3.1465 O   0  0  0  0  0  0
    4.4433    1.2493    4.6467 C   0  0  0  0  0  0
    2.8995   -0.5908    4.5732 O   0  0  0  0  0  0
    2.9000    3.4584    0.3000 O   0  0  0  0  0  0
    5.3302    0.5000    5.3667 O   0  0  0  0  0  0
    1.3559    1.0383    3.1966 H   0  0  0  0  0  0
    4.1018    4.3691    3.2994 H   0  0  0  0  0  0
    0.8737    2.9538    1.9329 H   0  0  0  0  0  0
    5.7039    3.0089    4.6055 H   0  0  0  0  0  0
    1.6376    5.0495    0.6805 H   0  0  0  0  0  0
    3.1322    4.9943    1.5993 H   0  0  0  0  0  0
    1.5640    5.2430    3.4001 H   0  0  0  0  0  0
    3.6081   -1.0064    5.0418 H   0  0  0  0  0  0
    3.4402    3.9344   -0.3125 H   0  0  0  0  0  0
    5.0455   -0.3923    5.4922 H   0  0  0  0  0  0
  1  2  2  0  0  0
  1  3  1  0  0  0
  1  4  1  0  0  0
  2  5  1  0  0  0
  2 13  1  0  0  0
  3  6  2  0  0  0
  3 14  1  0  0  0
  4  7  1  0  0  0
  4  8  1  0  0  0
  4 15  1  0  0  0
  5  9  2  0  0  0
  5 10  1  0  0  0
  6  9  1  0  0  0
  6 16  1  0  0  0
  7 11  1  0  0  0
  7 17  1  0  0  0
  7 18  1  0  0  0
  8 19  1  0  0  0
  9 12  1  0  0  0
 10 20  1  0  0  0
 11 21  1  0  0  0
 12 22  1  0  0  0
M  END
> <i_ionizer_Ion_state_n>
0

> <i_ionizer_Tot_Q>
0

> <s_ionizer_Ion_centers>


> <s_ionizer_Ion_types>


> <s_ionizer_Ion_ctrs_in>


> <r_ionizer_Ionization_penalty>
0.00118438

> <r_ionizer_Ionization_penalty_charging>
0

> <r_ionizer_Ionization_penalty_neutral>
0.00118438

> <s_st_Chirality_1>
4_R_8_7_1_15

> <i_mmod_Serial_Number-OPLS-2005>
744

> <i_i_glide_lignum>
735

> <r_i_docking_score>
-6.76861

> <r_i_glide_gscore>
-6.76861

> <r_i_glide_lipo>
-0.700769

> <r_i_glide_hbond>
-1.35

> <r_i_glide_metal>
0

> <r_i_glide_eburp>
-2.49874

> <r_i_glide_evdw>
-18.0855

> <r_i_glide_ecoul>
-13.2023

> <r_i_glide_erotb>
1.2181

> <r_i_glide_esite>
-0.670129

> <r_i_glide_emodel>
-42.4266

> <r_i_glide_energy>
-31.2878

> <r_i_glide_einternal>
0.87174

> <i_i_glide_confnum>
1

> <i_i_glide_posenum>
28

$$$$
C05302
                    3D
 Structure written by MMmdl.
 48 51  0  0  1  0            999 V2000
    0.9447    3.8807    2.2981 C   0  0  1  0  0  0
    1.4200    5.3567    2.2070 C   0  0  2  0  0  0
    1.9715    2.9838    3.0076 C   0  0  0  0  0  0
   -0.5070    3.7888    2.8509 C   0  0  0  0  0  0
    0.3897    6.1574    1.3882 C   0  0  1  0  0  0
    2.8346    5.4079    1.6191 C   0  0  0  0  0  0
    3.3321    3.3798    3.1040 C   0  0  0  0  0  0
    1.5903    1.7243    3.5309 C   0  0  0  0  0  0
   -1.5017    4.7019    2.0930 C   0  0  0  0  0  0
   -1.0075    6.1611    2.0339 C   0  0  2  0  0  0
    0.6588    7.6270    1.0472 C   0  0  0  0  0  0
    3.8297    4.7080    2.5506 C   0  0  0  0  0  0
    4.2658    2.5379    3.7393 C   0  0  0  0  0  0
    2.5283    0.8749    4.1697 C   0  0  0  0  0  0
   -1.7412    7.0646    1.0205 C   0  0  2  0  0  0
   -1.0470    6.7983    3.4539 C   0  0  0  0  0  0
   -0.7341    8.1900    0.6976 C   0  0  0  0  0  0
    3.8680    1.2987    4.2693 C   0  0  0  0  0  0
    2.2167   -0.3586    4.7051 O   0  0  0  0  0  0
   -2.9815    7.5676    1.4769 O   0  0  0  0  0  0
    4.7907    0.5001    4.8802 O   0  0  0  0  0  0
    0.8784   -0.8214    4.5982 C   0  0  0  0  0  0
    0.9073    3.4913    1.2794 H   0  0  0  0  0  0
    1.4829    5.7771    3.2104 H   0  0  0  0  0  0
    0.3107    5.6496    0.4237 H   0  0  0  0  0  0
   -0.8883    2.7726    2.7676 H   0  0  0  0  0  0
   -0.5116    4.0255    3.9147 H   0  0  0  0  0  0
    2.8380    4.9193    0.6438 H   0  0  0  0  0  0
    3.1582    6.4354    1.4519 H   0  0  0  0  0  0
    0.5678    1.4032    3.4331 H   0  0  0  0  0  0
   -1.6304    4.3152    1.0811 H   0  0  0  0  0  0
   -2.4861    4.6544    2.5599 H   0  0  0  0  0  0
    1.0785    8.1524    1.9059 H   0  0  0  0  0  0
    1.3618    7.7315    0.2202 H   0  0  0  0  0  0
    4.7763    4.5563    2.0306 H   0  0  0  0  0  0
    4.0437    5.3565    3.4010 H   0  0  0  0  0  0
    5.2987    2.8444    3.8205 H   0  0  0  0  0  0
   -1.9324    6.4991    0.1068 H   0  0  0  0  0  0
   -0.7114    7.8348    3.4561 H   0  0  0  0  0  0
   -2.0619    6.7948    3.8522 H   0  0  0  0  0  0
   -0.4337    6.2674    4.1790 H   0  0  0  0  0  0
   -0.9280    9.0804    1.2974 H   0  0  0  0  0  0
   -0.8012    8.4843   -0.3503 H   0  0  0  0  0  0
   -3.0193    8.4927    1.2878 H   0  0  0  0  0  0
    4.4379   -0.3530    5.0843 H   0  0  0  0  0  0
    0.7962   -1.7968    5.0775 H   0  0  0  0  0  0
    0.1819   -0.1483    5.1000 H   0  0  0  0  0  0
    0.5799   -0.9408    3.5558 H   0  0  0  0  0  0
  1  2  1  0  0  0
  1  3  1  0  0  0
  1  4  1  0  0  0
  1 23  1  0  0  0
  2  5  1  0  0  0
  2  6  1  0  0  0
  2 24  1  0  0  0
  3  7  2  0  0  0
  3  8  1  0  0  0
  4  9  1  0  0  0
  4 26  1  0  0  0
  4 27  1  0  0  0
  5 10  1  0  0  0
  5 11  1  0  0  0
  5 25  1  0  0  0
  6 12  1  0  0  0
  6 28  1  0  0  0
  6 29  1  0  0  0
  7 13  1  0  0  0
  7 12  1  0  0  0
  8 14  2  0  0  0
  8 30  1  0  0  0
  9 10  1  0  0  0
  9 31  1  0  0  0
  9 32  1  0  0  0
 10 15  1  0  0  0
 10 16  1  0  0  0
 11 17  1  0  0  0
 11 33  1  0  0  0
 11 34  1  0  0  0
 12 35  1  0  0  0
 12 36  1  0  0  0
 13 18  2  0  0  0
 13 37  1  0  0  0
 14 19  1  0  0  0
 14 18  1  0  0  0
 15 20  1  0  0  0
 15 17  1  0  0  0
 15 38  1  0  0  0
 16 39  1  0  0  0
 16 40  1  0  0  0
 16 41  1  0  0  0
 17 42  1  0  0  0
 17 43  1  0  0  0
 18 21  1  0  0  0
 19 22  1  0  0  0
 20 44  1  0  0  0
 21 45  1  0  0  0
 22 46  1  0  0  0
 22 47  1  0  0  0
 22 48  1  0  0  0
M  END
> <i_ionizer_Ion_state_n>
0

> <i_ionizer_Tot_Q>
0

> <s_ionizer_Ion_centers>


> <s_ionizer_Ion_types>


> <s_ionizer_Ion_ctrs_in>


> <r_ionizer_Ionization_penalty>
0.00059219

> <r_ionizer_Ionization_penalty_charging>
0

> <r_ionizer_Ionization_penalty_neutral>
0.00059219

> <s_st_Chirality_1>
1_S_3_2_4_23

> <s_st_Chirality_2>
2_R_5_1_6_24

> <s_st_Chirality_3>
5_S_10_2_11_25

> <s_st_Chirality_4>
10_S_15_5_9_16

> <s_st_Chirality_5>
15_S_20_10_17_38

> <i_mmod_Serial_Number-OPLS-2005>
672

> <i_i_glide_lignum>
665

> <r_i_docking_score>
-6.76014

> <r_i_glide_gscore>
-6.76014

> <r_i_glide_lipo>
-1.78023

> <r_i_glide_hbond>
-0.660368

> <r_i_glide_metal>
0

> <r_i_glide_eburp>
-1.49684

> <r_i_glide_evdw>
-26.9895

> <r_i_glide_ecoul>
-4.17222

> <r_i_glide_erotb>
0

> <r_i_glide_esite>
-0.246324

> <r_i_glide_emodel>
-49.2236

> <r_i_glide_energy>
-31.1617

> <r_i_glide_einternal>
1.60317

> <i_i_glide_confnum>
1

> <i_i_glide_posenum>
264

$$$$
C06711
                    3D
 Structure written by MMmdl.
 24 26  0  0  1  0            999 V2000
    1.8298    2.4894    3.1903 C   0  0  0  0  0  0
    1.1864    3.6845    2.6620 C   0  0  0  0  0  0
    3.1949    2.5577    2.8887 C   0  0  0  0  0  0
    1.2983    1.3945    3.8951 C   0  0  0  0  0  0
    2.1646    4.4712    2.0426 C   0  0  0  0  0  0
   -0.1576    4.0974    2.7001 C   0  0  0  0  0  0
    3.5381    3.8243    2.1213 C   0  0  1  0  0  0
    4.0798    1.5370    3.2800 C   0  0  0  0  0  0
    2.1764    0.3622    4.2932 C   0  0  0  0  0  0
    1.8374    5.6981    1.4374 C   0  0  0  0  0  0
   -0.4991    5.3279    2.0965 C   0  0  0  0  0  0
    4.4933    4.6287    2.7798 O   0  0  0  0  0  0
    3.5566    0.4330    3.9884 C   0  0  0  0  0  0
    0.4906    6.1221    1.4701 C   0  0  0  0  0  0
    0.2449    1.3436    4.1277 H   0  0  0  0  0  0
   -0.9108    3.4896    3.1793 H   0  0  0  0  0  0
    3.8888    3.5691    1.1208 H   0  0  0  0  0  0
    5.1323    1.5974    3.0453 H   0  0  0  0  0  0
    1.7910   -0.4884    4.8359 H   0  0  0  0  0  0
    2.5952    6.3008    0.9593 H   0  0  0  0  0  0
   -1.5249    5.6656    2.1135 H   0  0  0  0  0  0
    4.7794    5.3026    2.1827 H   0  0  0  0  0  0
    4.2157   -0.3638    4.3005 H   0  0  0  0  0  0
    0.2136    7.0606    1.0128 H   0  0  0  0  0  0
  1  2  1  0  0  0
  1  3  1  0  0  0
  1  4  2  0  0  0
  2  5  2  0  0  0
  2  6  1  0  0  0
  3  7  1  0  0  0
  3  8  2  0  0  0
  4  9  1  0  0  0
  4 15  1  0  0  0
  5 10  1  0  0  0
  5  7  1  0  0  0
  6 11  2  0  0  0
  6 16  1  0  0  0
  7 12  1  0  0  0
  7 17  1  0  0  0
  8 13  1  0  0  0
  8 18  1  0  0  0
  9 13  2  0  0  0
  9 19  1  0  0  0
 10 14  2  0  0  0
 10 20  1  0  0  0
 11 14  1  0  0  0
 11 21  1  0  0  0
 12 22  1  0  0  0
 13 23  1  0  0  0
 14 24  1  0  0  0
M  END
> <i_ionizer_Ion_state_n>
0

> <i_ionizer_Tot_Q>
0

> <s_ionizer_Ion_centers>


> <s_ionizer_Ion_types>


> <s_ionizer_Ion_ctrs_in>


> <r_ionizer_Ionization_penalty>
0

> <r_ionizer_Ionization_penalty_charging>
0

> <r_ionizer_Ionization_penalty_neutral>
0

> <i_mmod_Serial_Number-OPLS-2005>
887

> <i_i_glide_lignum>
875

> <r_i_docking_score>
-6.74763

> <r_i_glide_gscore>
-6.74763

> <r_i_glide_lipo>
-1.18541

> <r_i_glide_hbond>
-0.25527

> <r_i_glide_metal>
0

> <r_i_glide_eburp>
-2.40739

> <r_i_glide_evdw>
-24.3717

> <r_i_glide_ecoul>
-2.22383

> <r_i_glide_erotb>
0

> <r_i_glide_esite>
-0.72744

> <r_i_glide_emodel>
-33.9772

> <r_i_glide_energy>
-26.5955

> <r_i_glide_einternal>
0.587732

> <i_i_glide_confnum>
1

> <i_i_glide_posenum>
237

$$$$
C00788
                    3D
 Structure written by MMmdl.
 27 27  0  0  1  0            999 V2000
    3.5799    0.4011    1.5286 C   0  0  0  0  0  0
    4.0893    0.3143    2.8425 C   0  0  0  0  0  0
    2.2342    0.0535    1.2848 C   0  0  0  0  0  0
    4.4687    0.8484    0.3772 C   0  0  2  0  0  0
    3.2599   -0.1093    3.8983 C   0  0  0  0  0  0
    1.4011   -0.3714    2.3390 C   0  0  0  0  0  0
    5.5411   -0.2145    0.0711 C   0  0  0  0  0  0
    5.0982    2.0861    0.6538 O   0  0  0  0  0  0
    1.9159   -0.4523    3.6530 C   0  0  0  0  0  0
    1.1364   -0.8594    4.6990 O   0  0  0  0  0  0
    0.1039   -0.6998    2.0623 O   0  0  0  0  0  0
    5.9343   -2.2987   -1.2024 C   0  0  0  0  0  0
    5.1183    0.5724    3.0463 H   0  0  0  0  0  0
    1.8335    0.1110    0.2831 H   0  0  0  0  0  0
    3.8393    0.9949   -0.5020 H   0  0  0  0  0  0
    3.6584   -0.1707    4.9005 H   0  0  0  0  0  0
    6.2887    0.1863   -0.6155 H   0  0  0  0  0  0
    6.0645   -0.4772    0.9918 H   0  0  0  0  0  0
    4.4400    2.7502    0.7881 H   0  0  0  0  0  0
    1.5852   -0.9098    5.5268 H   0  0  0  0  0  0
   -0.3030   -1.2615    2.7013 H   0  0  0  0  0  0
    5.4390   -3.1842   -1.6012 H   0  0  0  0  0  0
    6.3912   -1.7604   -2.0336 H   0  0  0  0  0  0
    6.7234   -2.6259   -0.5244 H   0  0  0  0  0  0
    4.9572   -1.4462   -0.4991 N   0  3  0  0  0  0
    4.5406   -1.9841    0.2477 H   0  0  0  0  0  0
    4.2349   -1.1834   -1.1544 H   0  0  0  0  0  0
  1  3  1  0  0  0
  1  4  1  0  0  0
  1  2  2  0  0  0
  2  5  1  0  0  0
  2 13  1  0  0  0
  3  6  2  0  0  0
  3 14  1  0  0  0
  4  7  1  0  0  0
  4  8  1  0  0  0
  4 15  1  0  0  0
  5  9  2  0  0  0
  5 16  1  0  0  0
  6  9  1  0  0  0
  6 11  1  0  0  0
  7 17  1  0  0  0
  7 18  1  0  0  0
  7 25  1  0  0  0
  8 19  1  0  0  0
  9 10  1  0  0  0
 10 20  1  0  0  0
 11 21  1  0  0  0
 12 22  1  0  0  0
 12 23  1  0  0  0
 12 24  1  0  0  0
 12 25  1  0  0  0
 25 26  1  0  0  0
 25 27  1  0  0  0
M  CHG  1  25   1
M  END
> <i_ionizer_Ion_state_n>
1

> <i_ionizer_Tot_Q>
1

> <s_ionizer_Ion_centers>
25

> <s_ionizer_Ion_types>
N5

> <s_ionizer_Ion_ctrs_in>
10

> <r_ionizer_Ionization_penalty>
0.00124363

> <r_ionizer_Ionization_penalty_charging>
5.92456e-05

> <r_ionizer_Ionization_penalty_neutral>
0.00118438

> <s_st_Chirality_1>
4_R_8_7_1_15

> <i_mmod_Serial_Number-OPLS-2005>
335

> <i_i_glide_lignum>
332

> <r_i_docking_score>
-6.74477

> <r_i_glide_gscore>
-6.74477

> <r_i_glide_lipo>
-0.974842

> <r_i_glide_hbond>
-1.31849

> <r_i_glide_metal>
0

> <r_i_glide_eburp>
-2.3923

> <r_i_glide_evdw>
-22.8517

> <r_i_glide_ecoul>
-9.7096

> <r_i_glide_erotb>
1.06957

> <r_i_glide_esite>
-0.329612

> <r_i_glide_emodel>
-49.4922

> <r_i_glide_energy>
-32.5613

> <r_i_glide_einternal>
1.69897

> <i_i_glide_confnum>
1

> <i_i_glide_posenum>
181

$$$$
C00299
                    3D
 Structure written by MMmdl.
 29 30  0  0  1  0            999 V2000
    1.4728    1.9475    3.4474 C   0  0  2  0  0  0
    1.7301    3.2331    2.6993 N   0  0  0  0  0  0
    2.6046    1.6997    4.2992 O   0  0  0  0  0  0
    1.4747    0.7707    2.4789 C   0  0  1  0  0  0
    0.7427    4.2410    2.6998 C   0  0  0  0  0  0
    2.9067    3.4306    1.9896 C   0  0  0  0  0  0
    2.9727    0.3486    4.2827 C   0  0  1  0  0  0
    2.0255   -0.3679    3.3084 C   0  0  1  0  0  0
    0.1652    0.4828    2.0254 O   0  0  0  0  0  0
    1.0268    5.4070    1.9888 N   0  0  0  0  0  0
   -0.3333    4.1239    3.2839 O   0  0  0  0  0  0
    3.1702    4.5658    1.3002 C   0  0  0  0  0  0
    4.4298    0.2718    3.8008 C   0  0  0  0  0  0
    1.0158   -1.1126    3.9655 O   0  0  0  0  0  0
    2.1994    5.6549    1.2708 C   0  0  0  0  0  0
    5.3187    0.5057    4.8734 O   0  0  0  0  0  0
    2.3474    6.7213    0.6785 O   0  0  0  0  0  0
    0.5109    2.0597    3.9504 H   0  0  0  0  0  0
    2.1078    0.9719    1.6133 H   0  0  0  0  0  0
    3.6550    2.6517    1.9766 H   0  0  0  0  0  0
    2.8662   -0.1110    5.2673 H   0  0  0  0  0  0
    2.6017   -1.0375    2.6685 H   0  0  0  0  0  0
    0.2358   -0.1730    1.3471 H   0  0  0  0  0  0
    0.3238    6.1311    1.9896 H   0  0  0  0  0  0
    4.1037    4.6692    0.7663 H   0  0  0  0  0  0
    4.6432   -0.7000    3.3546 H   0  0  0  0  0  0
    4.6089    1.0250    3.0331 H   0  0  0  0  0  0
    1.4320   -1.6626    4.6138 H   0  0  0  0  0  0
    5.2855   -0.2356    5.4595 H   0  0  0  0  0  0
  1  2  1  0  0  0
  1  3  1  0  0  0
  1  4  1  0  0  0
  1 18  1  0  0  0
  2  5  1  0  0  0
  2  6  1  0  0  0
  3  7  1  0  0  0
  4  8  1  0  0  0
  4  9  1  0  0  0
  4 19  1  0  0  0
  5 10  1  0  0  0
  5 11  2  0  0  0
  6 12  2  0  0  0
  6 20  1  0  0  0
  7 13  1  0  0  0
  7  8  1  0  0  0
  7 21  1  0  0  0
  8 14  1  0  0  0
  8 22  1  0  0  0
  9 23  1  0  0  0
 10 15  1  0  0  0
 10 24  1  0  0  0
 12 15  1  0  0  0
 12 25  1  0  0  0
 13 16  1  0  0  0
 13 26  1  0  0  0
 13 27  1  0  0  0
 14 28  1  0  0  0
 15 17  2  0  0  0
 16 29  1  0  0  0
M  END
> <i_ionizer_Ion_state_n>
0

> <i_ionizer_Tot_Q>
0

> <s_ionizer_Ion_centers>


> <s_ionizer_Ion_types>


> <s_ionizer_Ion_ctrs_in>


> <r_ionizer_Ionization_penalty>
0

> <r_ionizer_Ionization_penalty_charging>
0

> <r_ionizer_Ionization_penalty_neutral>
0

> <s_st_Chirality_1>
1_R_3_2_4_18

> <s_st_Chirality_2>
4_R_9_1_8_19

> <s_st_Chirality_3>
7_R_3_8_13_21

> <s_st_Chirality_4>
8_R_14_4_7_22

> <i_mmod_Serial_Number-OPLS-2005>
182

> <i_i_glide_lignum>
180

> <r_i_docking_score>
-6.74444

> <r_i_glide_gscore>
-6.74444

> <r_i_glide_lipo>
-0.673608

> <r_i_glide_hbond>
-0.937906

> <r_i_glide_metal>
0

> <r_i_glide_eburp>
-1.93783

> <r_i_glide_evdw>
-29.662

> <r_i_glide_ecoul>
-6.91983

> <r_i_glide_erotb>
0.666214

> <r_i_glide_esite>
-0.796359

> <r_i_glide_emodel>
-51.0163

> <r_i_glide_energy>
-36.5819

> <r_i_glide_einternal>
3.70079

> <i_i_glide_confnum>
10

> <i_i_glide_posenum>
641

$$$$
C01177
                    3D
 Structure written by MMmdl.
 27 27  0  0  1  0            999 V2000
    0.1683    4.4212    2.7250 P   0  0  0  0  0  0
    0.9311    2.8398    2.3380 O   0  0  0  0  0  0
   -1.3438    4.0998    2.7026 O   0  0  0  0  0  0
    1.8454    2.3007    3.2868 C   0  0  0  0  0  0
    2.0712    0.7989    3.0078 C   0  0  1  0  0  0
    3.1733    3.0938    3.2691 C   0  0  1  0  0  0
    3.1278    0.1916    3.9640 C   0  0  2  0  0  0
    0.8603    0.1139    3.2677 O   0  0  0  0  0  0
    4.1484    2.5075    4.3088 C   0  0  1  0  0  0
    3.7705    2.9948    1.9867 O   0  0  0  0  0  0
    4.4357    1.0131    4.0378 C   0  0  0  0  0  0
    3.4572   -1.1029    3.4950 O   0  0  0  0  0  0
    5.3460    3.2651    4.2995 O   0  0  0  0  0  0
    5.2098    0.5024    5.1088 O   0  0  0  0  0  0
    1.4047    2.3873    4.2808 H   0  0  0  0  0  0
    2.3615    0.6525    1.9663 H   0  0  0  0  0  0
    3.0020    4.1459    3.4948 H   0  0  0  0  0  0
    2.7031    0.1115    4.9669 H   0  0  0  0  0  0
    0.7346    0.0967    4.2040 H   0  0  0  0  0  0
    3.7001    2.6176    5.2977 H   0  0  0  0  0  0
    3.1894    3.4088    1.3672 H   0  0  0  0  0  0
    4.9987    0.9026    3.1093 H   0  0  0  0  0  0
    3.9883   -1.5215    4.1560 H   0  0  0  0  0  0
    5.9885    2.8157    4.8262 H   0  0  0  0  0  0
    5.1224   -0.4384    5.1163 H   0  0  0  0  0  0
    0.7679    4.7317    4.1144 O   0  5  0  0  0  0
    0.6805    5.3013    1.5637 O   0  5  0  0  0  0
  1  2  1  0  0  0
  1  3  2  0  0  0
  1 26  1  0  0  0
  1 27  1  0  0  0
  2  4  1  0  0  0
  4  5  1  0  0  0
  4  6  1  0  0  0
  4 15  1  0  0  0
  5  7  1  0  0  0
  5  8  1  0  0  0
  5 16  1  0  0  0
  6  9  1  0  0  0
  6 10  1  0  0  0
  6 17  1  0  0  0
  7 11  1  0  0  0
  7 12  1  0  0  0
  7 18  1  0  0  0
  8 19  1  0  0  0
  9 13  1  0  0  0
  9 11  1  0  0  0
  9 20  1  0  0  0
 10 21  1  0  0  0
 11 14  1  0  0  0
 11 22  1  0  0  0
 12 23  1  0  0  0
 13 24  1  0  0  0
 14 25  1  0  0  0
M  CHG  2  26  -1  27  -1
M  END
> <i_ionizer_Ion_state_n>
3

> <i_ionizer_Tot_Q>
-2

> <s_ionizer_Ion_centers>
26_27

> <s_ionizer_Ion_types>
OM_OM

> <s_ionizer_Ion_ctrs_in>
3_4

> <r_ionizer_Ionization_penalty>
1.49178e-05

> <r_ionizer_Ionization_penalty_charging>
1.49178e-05

> <r_ionizer_Ionization_penalty_neutral>
0

> <s_st_Chirality_1>
5_R_8_4_7_16

> <s_st_Chirality_2>
6_R_10_4_9_17

> <s_st_Chirality_3>
7_S_12_5_11_18

> <s_st_Chirality_4>
9_R_13_6_11_20

> <i_mmod_Serial_Number-OPLS-2005>
415

> <i_i_glide_lignum>
411

> <r_i_docking_score>
-6.74423

> <r_i_glide_gscore>
-6.74423

> <r_i_glide_lipo>
-0.546893

> <r_i_glide_hbond>
-1.99333

> <r_i_glide_metal>
0

> <r_i_glide_eburp>
-1.8324

> <r_i_glide_evdw>
-18.4519

> <r_i_glide_ecoul>
-12.7994

> <r_i_glide_erotb>
0.3029

> <r_i_glide_esite>
0.0815842

> <r_i_glide_emodel>
-66.1108

> <r_i_glide_energy>
-31.2513

> <r_i_glide_einternal>
5.23682

> <i_i_glide_confnum>
1

> <i_i_glide_posenum>
462

$$$$
C00015
                    3D
 Structure written by MMmdl.
 36 37  0  0  1  0            999 V2000
    3.1360    0.3677    1.6684 C   0  0  2  0  0  0
    4.3062   -0.0045    0.7874 N   0  0  0  0  0  0
    2.8852    1.7699    1.5261 O   0  0  0  0  0  0
    3.5094    0.1858    3.1348 C   0  0  1  0  0  0
    5.2427    0.9875    0.4278 C   0  0  0  0  0  0
    4.4600   -1.2962    0.2998 C   0  0  0  0  0  0
    2.6484    2.3779    2.7752 C   0  0  1  0  0  0
    2.7213    1.2696    3.8364 C   0  0  1  0  0  0
    3.1415   -1.0988    3.6015 O   0  0  0  0  0  0
    6.2980    0.5948   -0.3957 N   0  0  0  0  0  0
    5.1567    2.1568    0.7997 O   0  0  0  0  0  0
    5.4861   -1.6646   -0.5026 C   0  0  0  0  0  0
    3.7096    3.4582    3.0180 C   0  0  0  0  0  0
    1.4496    0.8370    4.2807 O   0  0  0  0  0  0
    6.4986   -0.6924   -0.9010 C   0  0  0  0  0  0
    3.2215    4.7344    2.6584 O   0  0  0  0  0  0
    7.4670   -0.9292   -1.6197 O   0  0  0  0  0  0
    2.3888    4.9632    1.1923 P   0  0  0  0  0  0
    0.7450    4.9441    1.6288 O   0  0  0  0  0  0
    2.7241    6.3164    0.6908 O   0  0  0  0  0  0
   -0.4289    4.9416    2.9747 P   0  0  0  0  0  0
   -0.3099    6.3891    3.5037 O   0  0  0  0  0  0
    2.3043   -0.2745    1.3749 H   0  0  0  0  0  0
    4.5818    0.3155    3.2880 H   0  0  0  0  0  0
    3.7370   -2.0552    0.5602 H   0  0  0  0  0  0
    1.6479    2.8127    2.8021 H   0  0  0  0  0  0
    3.2884    1.6293    4.6950 H   0  0  0  0  0  0
    3.6160   -1.2486    4.4067 H   0  0  0  0  0  0
    6.9706    1.3016   -0.6527 H   0  0  0  0  0  0
    5.5568   -2.6845   -0.8522 H   0  0  0  0  0  0
    4.0412    3.4515    4.0559 H   0  0  0  0  0  0
    4.5894    3.2567    2.4068 H   0  0  0  0  0  0
    1.5910    0.0846    4.8501 H   0  0  0  0  0  0
    2.6536    3.7875    0.3316 O   0  5  0  0  0  0
   -1.7588    4.5944    2.2672 O   0  5  0  0  0  0
    0.1459    3.8457    3.9004 O   0  5  0  0  0  0
  1  2  1  0  0  0
  1  3  1  0  0  0
  1  4  1  0  0  0
  1 23  1  0  0  0
  2  5  1  0  0  0
  2  6  1  0  0  0
  3  7  1  0  0  0
  4  8  1  0  0  0
  4  9  1  0  0  0
  4 24  1  0  0  0
  5 10  1  0  0  0
  5 11  2  0  0  0
  6 12  2  0  0  0
  6 25  1  0  0  0
  7 13  1  0  0  0
  7  8  1  0  0  0
  7 26  1  0  0  0
  8 14  1  0  0  0
  8 27  1  0  0  0
  9 28  1  0  0  0
 10 15  1  0  0  0
 10 29  1  0  0  0
 12 15  1  0  0  0
 12 30  1  0  0  0
 13 16  1  0  0  0
 13 31  1  0  0  0
 13 32  1  0  0  0
 14 33  1  0  0  0
 15 17  2  0  0  0
 16 18  1  0  0  0
 18 19  1  0  0  0
 18 20  2  0  0  0
 18 34  1  0  0  0
 19 21  1  0  0  0
 21 22  2  0  0  0
 21 35  1  0  0  0
 21 36  1  0  0  0
M  CHG  3  34  -1  35  -1  36  -1
M  END
> <i_ionizer_Ion_state_n>
7

> <i_ionizer_Tot_Q>
-3

> <s_ionizer_Ion_centers>
34_35_36

> <s_ionizer_Ion_types>
OM_OM_OM

> <s_ionizer_Ion_ctrs_in>
20_23_24

> <r_ionizer_Ionization_penalty>
2.23767e-05

> <r_ionizer_Ionization_penalty_charging>
2.23767e-05

> <r_ionizer_Ionization_penalty_neutral>
0

> <s_st_Chirality_1>
1_R_3_2_4_23

> <s_st_Chirality_2>
4_R_9_1_8_24

> <s_st_Chirality_3>
7_R_3_8_13_26

> <s_st_Chirality_4>
8_R_14_4_7_27

> <i_mmod_Serial_Number-OPLS-2005>
13

> <i_i_glide_lignum>
13

> <r_i_docking_score>
-6.74394

> <r_i_glide_gscore>
-6.74394

> <r_i_glide_lipo>
-0.725996

> <r_i_glide_hbond>
-1.79679

> <r_i_glide_metal>
0

> <r_i_glide_eburp>
-1.14893

> <r_i_glide_evdw>
-31.2524

> <r_i_glide_ecoul>
-4.87348

> <r_i_glide_erotb>
0.696417

> <r_i_glide_esite>
-0.781102

> <r_i_glide_emodel>
-86.2828

> <r_i_glide_energy>
-36.1259

> <r_i_glide_einternal>
11.7572

> <i_i_glide_confnum>
334

> <i_i_glide_posenum>
483

$$$$
C00221
                    3D
 Structure written by MMmdl.
 24 24  0  0  1  0            999 V2000
    4.6222    0.6251    3.4660 C   0  0  2  0  0  0
    3.4257   -0.3410    3.5903 C   0  0  2  0  0  0
    5.1767    0.4631    2.1544 O   0  0  0  0  0  0
    5.7465    0.3336    4.4746 C   0  0  0  0  0  0
    2.3973   -0.0838    2.4727 C   0  0  1  0  0  0
    2.8054   -0.2014    4.8648 O   0  0  0  0  0  0
    4.3218    0.8455    1.1037 C   0  0  2  0  0  0
    5.3003    0.5001    5.8159 O   0  0  0  0  0  0
    3.0738   -0.0562    1.0868 C   0  0  2  0  0  0
    1.3996   -1.1008    2.4955 O   0  0  0  0  0  0
    5.0463    0.6982   -0.0985 O   0  0  0  0  0  0
    2.1705    0.4567    0.1121 O   0  0  0  0  0  0
    4.2853    1.6560    3.5922 H   0  0  0  0  0  0
    3.7965   -1.3634    3.5004 H   0  0  0  0  0  0
    6.1053   -0.6893    4.3583 H   0  0  0  0  0  0
    6.5982    0.9908    4.2966 H   0  0  0  0  0  0
    1.9181    0.8802    2.6530 H   0  0  0  0  0  0
    3.2554   -0.7954    5.4824 H   0  0  0  0  0  0
    4.0648    1.8987    1.2823 H   0  0  0  0  0  0
    4.9608   -0.3471    6.1356 H   0  0  0  0  0  0
    3.3755   -1.0664    0.8041 H   0  0  0  0  0  0
    0.7674   -0.8840    3.1955 H   0  0  0  0  0  0
    4.6837   -0.0678   -0.5645 H   0  0  0  0  0  0
    2.4665    0.1526   -0.7578 H   0  0  0  0  0  0
  1  2  1  0  0  0
  1  3  1  0  0  0
  1  4  1  0  0  0
  1 13  1  0  0  0
  2  5  1  0  0  0
  2  6  1  0  0  0
  2 14  1  0  0  0
  3  7  1  0  0  0
  4  8  1  0  0  0
  4 15  1  0  0  0
  4 16  1  0  0  0
  5  9  1  0  0  0
  5 10  1  0  0  0
  5 17  1  0  0  0
  6 18  1  0  0  0
  7 11  1  0  0  0
  7  9  1  0  0  0
  7 19  1  0  0  0
  8 20  1  0  0  0
  9 12  1  0  0  0
  9 21  1  0  0  0
 10 22  1  0  0  0
 11 23  1  0  0  0
 12 24  1  0  0  0
M  END
> <i_ionizer_Ion_state_n>
0

> <i_ionizer_Tot_Q>
0

> <s_ionizer_Ion_centers>


> <s_ionizer_Ion_types>


> <s_ionizer_Ion_ctrs_in>


> <r_ionizer_Ionization_penalty>
0

> <r_ionizer_Ionization_penalty_charging>
0

> <r_ionizer_Ionization_penalty_neutral>
0

> <s_st_Chirality_1>
1_R_3_2_4_13

> <s_st_Chirality_2>
2_R_6_5_1_14

> <s_st_Chirality_3>
5_S_10_9_2_17

> <s_st_Chirality_4>
7_R_3_11_9_19

> <s_st_Chirality_5>
9_R_12_7_5_21

> <i_mmod_Serial_Number-OPLS-2005>
146

> <i_i_glide_lignum>
144

> <r_i_docking_score>
-6.74373

> <r_i_glide_gscore>
-6.74373

> <r_i_glide_lipo>
-0.506249

> <r_i_glide_hbond>
-1.31664

> <r_i_glide_metal>
0

> <r_i_glide_eburp>
-2.42304

> <r_i_glide_evdw>
-15.7643

> <r_i_glide_ecoul>
-15.6854

> <r_i_glide_erotb>
0.554751

> <r_i_glide_esite>
-0.222872

> <r_i_glide_emodel>
-42.5251

> <r_i_glide_energy>
-31.4496

> <r_i_glide_einternal>
1.55977

> <i_i_glide_confnum>
1

> <i_i_glide_posenum>
860

$$$$
C04185
                    3D
 Structure written by MMmdl.
 20 21  0  0  1  0            999 V2000
    2.3254    2.6099    3.4997 C   0  0  0  0  0  0
    1.3874    1.6158    3.0978 C   0  0  0  0  0  0
    1.6839    3.8925    3.4003 C   0  0  0  0  0  0
    3.6107    2.1665    3.8893 C   0  0  0  0  0  0
    0.2356    2.3044    2.7752 N   0  0  0  0  0  0
    1.7112    0.2476    3.0831 C   0  0  0  0  0  0
    0.4058    3.6681    2.9538 C   0  0  0  0  0  0
    3.9500    0.7974    3.8808 C   0  0  0  0  0  0
    2.9980   -0.1659    3.4747 C   0  0  0  0  0  0
   -0.7193    4.5759    2.6596 C   0  0  0  0  0  0
    5.2065    0.4298    4.2724 O   0  0  0  0  0  0
    3.2997   -1.4981    3.4508 O   0  0  0  0  0  0
   -1.8765    4.1025    2.6530 O   0  0  0  0  0  0
    2.1286    4.8484    3.6342 H   0  0  0  0  0  0
    4.3452    2.8944    4.2007 H   0  0  0  0  0  0
   -0.6380    1.9161    2.4489 H   0  0  0  0  0  0
    0.9763   -0.4798    2.7716 H   0  0  0  0  0  0
    5.2775   -0.4609    4.5735 H   0  0  0  0  0  0
    3.9660   -1.7570    4.0656 H   0  0  0  0  0  0
   -0.4769    5.7820    2.4282 O   0  5  0  0  0  0
  1  2  2  0  0  0
  1  3  1  0  0  0
  1  4  1  0  0  0
  2  5  1  0  0  0
  2  6  1  0  0  0
  3  7  2  0  0  0
  3 14  1  0  0  0
  4  8  2  0  0  0
  4 15  1  0  0  0
  5  7  1  0  0  0
  5 16  1  0  0  0
  6  9  2  0  0  0
  6 17  1  0  0  0
  7 10  1  0  0  0
  8 11  1  0  0  0
  8  9  1  0  0  0
  9 12  1  0  0  0
 10 13  2  0  0  0
 10 20  1  0  0  0
 11 18  1  0  0  0
 12 19  1  0  0  0
M  CHG  1  20  -1
M  END
> <i_ionizer_Ion_state_n>
4

> <i_ionizer_Tot_Q>
-1

> <s_ionizer_Ion_centers>
20

> <s_ionizer_Ion_types>
OM

> <s_ionizer_Ion_ctrs_in>
13

> <r_ionizer_Ionization_penalty>
0.00177657

> <r_ionizer_Ionization_penalty_charging>
0.00059219

> <r_ionizer_Ionization_penalty_neutral>
0.00118438

> <i_mmod_Serial_Number-OPLS-2005>
583

> <i_i_glide_lignum>
577

> <r_i_docking_score>
-6.7421

> <r_i_glide_gscore>
-6.7421

> <r_i_glide_lipo>
-0.756832

> <r_i_glide_hbond>
-1.47717

> <r_i_glide_metal>
0

> <r_i_glide_eburp>
-2.33218

> <r_i_glide_evdw>
-13.2758

> <r_i_glide_ecoul>
-8.35024

> <r_i_glide_erotb>
0

> <r_i_glide_esite>
-0.278835

> <r_i_glide_emodel>
-48.6092

> <r_i_glide_energy>
-21.626

> <r_i_glide_einternal>
1.61275

> <i_i_glide_confnum>
1

> <i_i_glide_posenum>
713

$$$$
C05581
                    3D
 Structure written by MMmdl.
 22 22  0  0  1  0            999 V2000
    3.1633    0.7858    4.0656 C   0  0  0  0  0  0
    2.3411    1.6536    3.3178 C   0  0  0  0  0  0
    4.3972    1.2716    4.5750 C   0  0  0  0  0  0
    2.6884   -0.4862    4.2863 O   0  0  0  0  0  0
    2.7443    2.9760    3.0431 C   0  0  0  0  0  0
    4.7982    2.5948    4.3002 C   0  0  0  0  0  0
    5.2080    0.4999    5.3576 O   0  0  0  0  0  0
    1.2863   -0.6101    4.4670 C   0  0  0  0  0  0
    3.9782    3.4443    3.5348 C   0  0  0  0  0  0
    1.8511    3.8915    2.2291 C   0  0  0  0  0  0
    0.8554    4.6446    3.1067 C   0  0  0  0  0  0
   -0.1713    4.0957    3.5005 O   0  0  0  0  0  0
    1.3942    1.2934    2.9430 H   0  0  0  0  0  0
    5.7360    2.9677    4.6850 H   0  0  0  0  0  0
    4.9035   -0.3901    5.4453 H   0  0  0  0  0  0
    1.0746   -1.4753    5.0950 H   0  0  0  0  0  0
    0.8649    0.2706    4.9535 H   0  0  0  0  0  0
    0.7836   -0.7621    3.5120 H   0  0  0  0  0  0
    4.2949    4.4571    3.3328 H   0  0  0  0  0  0
    2.4636    4.6104    1.6844 H   0  0  0  0  0  0
    1.3051    3.3065    1.4885 H   0  0  0  0  0  0
    1.1154    5.6750    3.3506 H   0  0  0  0  0  0
  1  2  2  0  0  0
  1  3  1  0  0  0
  1  4  1  0  0  0
  2  5  1  0  0  0
  2 13  1  0  0  0
  3  6  2  0  0  0
  3  7  1  0  0  0
  4  8  1  0  0  0
  5  9  2  0  0  0
  5 10  1  0  0  0
  6  9  1  0  0  0
  6 14  1  0  0  0
  7 15  1  0  0  0
  8 16  1  0  0  0
  8 17  1  0  0  0
  8 18  1  0  0  0
  9 19  1  0  0  0
 10 11  1  0  0  0
 10 20  1  0  0  0
 10 21  1  0  0  0
 11 12  2  0  0  0
 11 22  1  0  0  0
M  END
> <i_ionizer_Ion_state_n>
0

> <i_ionizer_Tot_Q>
0

> <s_ionizer_Ion_centers>


> <s_ionizer_Ion_types>


> <s_ionizer_Ion_ctrs_in>


> <r_ionizer_Ionization_penalty>
0.00059219

> <r_ionizer_Ionization_penalty_charging>
0

> <r_ionizer_Ionization_penalty_neutral>
0.00059219

> <i_mmod_Serial_Number-OPLS-2005>
749

> <i_i_glide_lignum>
740

> <r_i_docking_score>
-6.7282

> <r_i_glide_gscore>
-6.7282

> <r_i_glide_lipo>
-0.714827

> <r_i_glide_hbond>
-0.95

> <r_i_glide_metal>
0

> <r_i_glide_eburp>
-2.5

> <r_i_glide_evdw>
-21.783

> <r_i_glide_ecoul>
-7.16619

> <r_i_glide_erotb>
0.633011

> <r_i_glide_esite>
-0.737123

> <r_i_glide_emodel>
-38.7943

> <r_i_glide_energy>
-28.9492

> <r_i_glide_einternal>
1.25173

> <i_i_glide_confnum>
2

> <i_i_glide_posenum>
410

$$$$
C00632
                    3D
 Structure written by MMmdl.
 17 17  0  0  1  0            999 V2000
    2.3153    1.8038    3.4670 C   0  0  0  0  0  0
    3.1466    0.9187    4.2234 C   0  0  0  0  0  0
    0.9262    1.4406    2.9742 C   0  0  0  0  0  0
    2.8183    3.0919    3.1572 C   0  0  0  0  0  0
    4.4390    1.3345    4.6298 C   0  0  0  0  0  0
    2.7494   -0.3164    4.5803 N   0  0  0  0  0  0
    0.6214    0.2464    2.7535 O   0  0  0  0  0  0
    4.1000    3.4973    3.5686 C   0  0  0  0  0  0
    4.9112    2.6184    4.3027 C   0  0  0  0  0  0
    5.2526    0.5000    5.3473 O   0  0  0  0  0  0
    2.2225    3.7915    2.5890 H   0  0  0  0  0  0
    3.4232   -0.9808    4.9320 H   0  0  0  0  0  0
    1.9005   -0.6880    4.1700 H   0  0  0  0  0  0
    4.4606    4.4839    3.3174 H   0  0  0  0  0  0
    5.8959    2.9342    4.6143 H   0  0  0  0  0  0
    4.9051   -0.3742    5.4301 H   0  0  0  0  0  0
    0.1008    2.3628    2.7856 O   0  5  0  0  0  0
  1  2  1  0  0  0
  1  3  1  0  0  0
  1  4  2  0  0  0
  2  5  2  0  0  0
  2  6  1  0  0  0
  3  7  2  0  0  0
  3 17  1  0  0  0
  4  8  1  0  0  0
  4 11  1  0  0  0
  5  9  1  0  0  0
  5 10  1  0  0  0
  6 12  1  0  0  0
  6 13  1  0  0  0
  8  9  2  0  0  0
  8 14  1  0  0  0
  9 15  1  0  0  0
 10 16  1  0  0  0
M  CHG  1  17  -1
M  END
> <i_ionizer_Ion_state_n>
2

> <i_ionizer_Tot_Q>
-1

> <s_ionizer_Ion_centers>
17

> <s_ionizer_Ion_types>
OM

> <s_ionizer_Ion_ctrs_in>
7

> <r_ionizer_Ionization_penalty>
0.00305503

> <r_ionizer_Ionization_penalty_charging>
0.00059219

> <r_ionizer_Ionization_penalty_neutral>
0.00246284

> <i_mmod_Serial_Number-OPLS-2005>
301

> <i_i_glide_lignum>
299

> <r_i_docking_score>
-6.72572

> <r_i_glide_gscore>
-6.72572

> <r_i_glide_lipo>
-0.557229

> <r_i_glide_hbond>
-0.9

> <r_i_glide_metal>
0

> <r_i_glide_eburp>
-2.5

> <r_i_glide_evdw>
-17.1788

> <r_i_glide_ecoul>
-8.0071

> <r_i_glide_erotb>
0

> <r_i_glide_esite>
-0.593471

> <r_i_glide_emodel>
-44.4809

> <r_i_glide_energy>
-25.1859

> <r_i_glide_einternal>
0.875017

> <i_i_glide_confnum>
1

> <i_i_glide_posenum>
169

$$$$
C07724
                    3D
 Structure written by MMmdl.
 25 27  0  0  1  0            999 V2000
    2.3066    3.9570    2.2693 C   0  0  0  0  0  0
    2.7848    2.7090    2.8493 C   0  0  0  0  0  0
    0.9393    4.0733    2.5446 C   0  0  0  0  0  0
    2.9855    4.9519    1.5432 C   0  0  0  0  0  0
    1.7050    2.0743    3.4735 C   0  0  0  0  0  0
    4.0660    2.1289    2.8552 C   0  0  0  0  0  0
    0.4270    2.8831    3.3387 C   0  0  0  0  0  0
    0.2004    5.1865    2.1051 C   0  0  0  0  0  0
    2.2550    6.0751    1.0960 C   0  0  0  0  0  0
    1.8615    0.8391    4.1264 C   0  0  0  0  0  0
    4.2377    0.8877    3.5076 C   0  0  0  0  0  0
    0.8715    6.1939    1.3739 C   0  0  0  0  0  0
   -1.1329    5.2956    2.3759 O   0  0  0  0  0  0
    3.1441    0.2478    4.1383 C   0  0  0  0  0  0
    0.1830    7.2880    0.9325 O   0  0  0  0  0  0
    4.0406    4.8602    1.3319 H   0  0  0  0  0  0
    4.8989    2.6192    2.3733 H   0  0  0  0  0  0
    0.0417    3.1888    4.3117 H   0  0  0  0  0  0
   -0.3377    2.3353    2.7876 H   0  0  0  0  0  0
    2.7621    6.8477    0.5371 H   0  0  0  0  0  0
    1.0236    0.3549    4.6061 H   0  0  0  0  0  0
    5.2125    0.4230    3.5252 H   0  0  0  0  0  0
   -1.4936    6.0916    2.0142 H   0  0  0  0  0  0
    3.2915   -0.7010    4.6329 H   0  0  0  0  0  0
    0.7454    8.0083    0.6921 H   0  0  0  0  0  0
  1  2  1  0  0  0
  1  3  1  0  0  0
  1  4  2  0  0  0
  2  5  2  0  0  0
  2  6  1  0  0  0
  3  7  1  0  0  0
  3  8  2  0  0  0
  4  9  1  0  0  0
  4 16  1  0  0  0
  5 10  1  0  0  0
  5  7  1  0  0  0
  6 11  2  0  0  0
  6 17  1  0  0  0
  7 18  1  0  0  0
  7 19  1  0  0  0
  8 12  1  0  0  0
  8 13  1  0  0  0
  9 12  2  0  0  0
  9 20  1  0  0  0
 10 14  2  0  0  0
 10 21  1  0  0  0
 11 14  1  0  0  0
 11 22  1  0  0  0
 12 15  1  0  0  0
 13 23  1  0  0  0
 14 24  1  0  0  0
 15 25  1  0  0  0
M  END
> <i_ionizer_Ion_state_n>
0

> <i_ionizer_Tot_Q>
0

> <s_ionizer_Ion_centers>


> <s_ionizer_Ion_types>


> <s_ionizer_Ion_ctrs_in>


> <r_ionizer_Ionization_penalty>
0.00118438

> <r_ionizer_Ionization_penalty_charging>
0

> <r_ionizer_Ionization_penalty_neutral>
0.00118438

> <i_mmod_Serial_Number-OPLS-2005>
905

> <i_i_glide_lignum>
893

> <r_i_docking_score>
-6.72369

> <r_i_glide_gscore>
-6.72369

> <r_i_glide_lipo>
-1.19457

> <r_i_glide_hbond>
-0.0486322

> <r_i_glide_metal>
0

> <r_i_glide_eburp>
-2.28619

> <r_i_glide_evdw>
-26.1996

> <r_i_glide_ecoul>
-2.47458

> <r_i_glide_erotb>
0

> <r_i_glide_esite>
-0.850875

> <r_i_glide_emodel>
-39.2788

> <r_i_glide_energy>
-28.6742

> <r_i_glide_einternal>
0.297384

> <i_i_glide_confnum>
1

> <i_i_glide_posenum>
899

$$$$
C02406
                    3D
 Structure written by MMmdl.
 29 29  0  0  1  0            999 V2000
    4.1312    1.1108    2.4391 C   0  0  0  0  0  0
    5.2026    0.2975    2.9129 C   0  0  0  0  0  0
    3.1879    1.8138    3.3620 C   0  0  0  0  0  0
    3.9777    1.3076    1.0463 C   0  0  0  0  0  0
    6.0822   -0.3001    1.9746 C   0  0  0  0  0  0
    5.3724    0.0966    4.3148 N   0  0  0  0  0  0
    2.3215    0.9359    4.2837 C   0  0  0  0  0  0
    3.0815    3.0393    3.4222 O   0  0  0  0  0  0
    4.8536    0.7018    0.1286 C   0  0  0  0  0  0
    5.9065   -0.1023    0.5936 C   0  0  0  0  0  0
    5.6339    1.0139    5.2578 C   0  0  0  0  0  0
    1.5816   -0.2183    3.5550 C   0  0  2  0  0  0
    5.7425    0.7287    6.4476 O   0  0  0  0  0  0
    0.5171    0.2732    2.5596 C   0  0  0  0  0  0
    0.1098    1.4512    2.6706 O   0  0  0  0  0  0
    3.1871    1.9367    0.6646 H   0  0  0  0  0  0
    6.9104   -0.9143    2.2918 H   0  0  0  0  0  0
    5.3172   -0.8627    4.6295 H   0  0  0  0  0  0
    2.9775    0.5204    5.0493 H   0  0  0  0  0  0
    1.5966    1.5590    4.8098 H   0  0  0  0  0  0
    4.7220    0.8608   -0.9316 H   0  0  0  0  0  0
    6.5846   -0.5640   -0.1089 H   0  0  0  0  0  0
    5.7442    2.0303    4.8546 H   0  0  0  0  0  0
    2.3131   -0.8323    3.0259 H   0  0  0  0  0  0
    0.4586   -1.8512    4.0217 H   0  0  0  0  0  0
    1.5755   -1.4685    5.1782 H   0  0  0  0  0  0
    0.9045   -1.0959    4.5225 N   0  3  0  0  0  0
    0.2020   -0.5616    5.0137 H   0  0  0  0  0  0
    0.0975   -0.5585    1.7264 O   0  5  0  0  0  0
  1  2  1  0  0  0
  1  3  1  0  0  0
  1  4  2  0  0  0
  2  5  2  0  0  0
  2  6  1  0  0  0
  3  7  1  0  0  0
  3  8  2  0  0  0
  4  9  1  0  0  0
  4 16  1  0  0  0
  5 10  1  0  0  0
  5 17  1  0  0  0
  6 11  1  0  0  0
  6 18  1  0  0  0
  7 12  1  0  0  0
  7 19  1  0  0  0
  7 20  1  0  0  0
  9 10  2  0  0  0
  9 21  1  0  0  0
 10 22  1  0  0  0
 11 13  2  0  0  0
 11 23  1  0  0  0
 12 14  1  0  0  0
 12 24  1  0  0  0
 12 27  1  0  0  0
 14 15  2  0  0  0
 14 29  1  0  0  0
 25 27  1  0  0  0
 26 27  1  0  0  0
 27 28  1  0  0  0
M  CHG  2  27   1  29  -1
M  END
> <i_ionizer_Ion_state_n>
3

> <i_ionizer_Tot_Q>
0

> <s_ionizer_Ion_centers>
27_29

> <s_ionizer_Ion_types>
N5_OM

> <s_ionizer_Ion_ctrs_in>
15_16

> <r_ionizer_Ionization_penalty>
0.000779521

> <r_ionizer_Ionization_penalty_charging>
0.000779521

> <r_ionizer_Ionization_penalty_neutral>
0

> <s_st_Chirality_1>
12_R_27_14_7_24

> <i_mmod_Serial_Number-OPLS-2005>
488

> <i_i_glide_lignum>
483

> <r_i_docking_score>
-6.7224

> <r_i_glide_gscore>
-6.7224

> <r_i_glide_lipo>
-0.756459

> <r_i_glide_hbond>
-1.59817

> <r_i_glide_metal>
0

> <r_i_glide_eburp>
-2.39826

> <r_i_glide_evdw>
-19.1945

> <r_i_glide_ecoul>
-7.46132

> <r_i_glide_erotb>
1.4101

> <r_i_glide_esite>
-1.09791

> <r_i_glide_emodel>
-49.9834

> <r_i_glide_energy>
-26.6558

> <r_i_glide_einternal>
10.7285

> <i_i_glide_confnum>
33

> <i_i_glide_posenum>
177

$$$$
C00072
                    3D
 Structure written by MMmdl.
 20 20  0  0  1  0            999 V2000
    4.4010    0.9531    1.9471 C   0  0  2  0  0  0
    4.2486    0.2214    3.2514 C   0  0  0  0  0  0
    3.0344    1.2358    1.6327 O   0  0  0  0  0  0
    5.0647    0.1669    0.7872 C   0  0  1  0  0  0
    2.9762    0.0926    3.6003 C   0  0  0  0  0  0
    5.3610   -0.1446    3.9035 O   0  0  0  0  0  0
    2.1687    0.7302    2.5612 C   0  0  0  0  0  0
    4.2025   -1.0128    0.3018 C   0  0  0  0  0  0
    5.3001    1.0127   -0.3234 O   0  0  0  0  0  0
    2.4537   -0.4677    4.6983 O   0  0  0  0  0  0
    0.9424    0.8104    2.5301 O   0  0  0  0  0  0
    2.9283   -0.5525   -0.0998 O   0  0  0  0  0  0
    4.9092    1.9041    2.1132 H   0  0  0  0  0  0
    6.0209   -0.2224    1.1404 H   0  0  0  0  0  0
    5.1072   -0.7251    4.6037 H   0  0  0  0  0  0
    4.6663   -1.4960   -0.5587 H   0  0  0  0  0  0
    4.0895   -1.7728    1.0757 H   0  0  0  0  0  0
    5.1916    0.5005   -1.1110 H   0  0  0  0  0  0
    3.1583   -0.9097    5.1478 H   0  0  0  0  0  0
    2.9689   -0.2982   -1.0094 H   0  0  0  0  0  0
  1  2  1  0  0  0
  1  3  1  0  0  0
  1  4  1  0  0  0
  1 13  1  0  0  0
  2  5  2  0  0  0
  2  6  1  0  0  0
  3  7  1  0  0  0
  4  8  1  0  0  0
  4  9  1  0  0  0
  4 14  1  0  0  0
  5 10  1  0  0  0
  5  7  1  0  0  0
  6 15  1  0  0  0
  7 11  2  0  0  0
  8 12  1  0  0  0
  8 16  1  0  0  0
  8 17  1  0  0  0
  9 18  1  0  0  0
 10 19  1  0  0  0
 12 20  1  0  0  0
M  END
> <i_ionizer_Ion_state_n>
0

> <i_ionizer_Tot_Q>
0

> <s_ionizer_Ion_centers>


> <s_ionizer_Ion_types>


> <s_ionizer_Ion_ctrs_in>


> <r_ionizer_Ionization_penalty>
0

> <r_ionizer_Ionization_penalty_charging>
0

> <r_ionizer_Ionization_penalty_neutral>
0

> <s_st_Chirality_1>
1_R_3_2_4_13

> <s_st_Chirality_2>
4_R_9_1_8_14

> <s_st_EZ_1>
6_2_5_10_Z

> <i_mmod_Serial_Number-OPLS-2005>
49

> <i_i_glide_lignum>
48

> <r_i_docking_score>
-6.72191

> <r_i_glide_gscore>
-6.72191

> <r_i_glide_lipo>
-0.484934

> <r_i_glide_hbond>
-1.64384

> <r_i_glide_metal>
0

> <r_i_glide_eburp>
-2.45358

> <r_i_glide_evdw>
-17.6494

> <r_i_glide_ecoul>
-14.231

> <r_i_glide_erotb>
1.15147

> <r_i_glide_esite>
-0.455984

> <r_i_glide_emodel>
-38.5608

> <r_i_glide_energy>
-31.8804

> <r_i_glide_einternal>
12.8506

> <i_i_glide_confnum>
6

> <i_i_glide_posenum>
203

$$$$
C09813
                    3D
 Structure written by MMmdl.
 97100  0  0  1  0            999 V2000
   -9.7614    8.5137   12.3346 N   0  0  0  0  0  0
  -10.9983    8.3875   11.5006 C   0  0  1  0  0  0
   -8.5835    9.0986   11.9264 C   0  0  0  0  0  0
   -9.5247    8.1076   13.6329 C   0  0  0  0  0  0
  -12.1801    9.0682   12.2072 C   0  0  1  0  0  0
  -10.7891    9.0728   10.2955 O   0  0  0  0  0  0
   -7.6841    8.9662   13.0185 C   0  0  0  0  0  0
   -8.2999    9.6751   10.7219 N   0  0  0  0  0  0
   -8.3214    8.3460   14.0835 N   0  0  0  0  0  0
  -12.8571    9.7845   11.0551 C   0  0  1  0  0  0
  -13.1112    8.1797   12.7873 O   0  0  0  0  0  0
  -11.6576   10.2045   10.1955 C   0  0  1  0  0  0
   -6.3778    9.4720   12.8048 C   0  0  0  0  0  0
   -7.0362   10.1046   10.6681 C   0  0  0  0  0  0
  -13.6541    8.8229   10.3630 O   0  0  0  0  0  0
  -10.9118   11.4518   10.7042 C   0  0  0  0  0  0
   -6.0885   10.0368   11.6093 N   0  0  0  0  0  0
   -5.4123    9.4148   13.7313 N   0  0  0  0  0  0
  -14.6993    9.4040    9.0245 P   0  0  0  0  0  0
   -9.7701   11.7322    9.9205 O   0  0  0  0  0  0
  -15.1009    8.1008    8.2995 O   0  0  0  0  0  0
   -8.7988   13.0964   10.2322 P   0  0  0  0  0  0
   -7.4815   12.9803    9.1563 O   0  0  0  0  0  0
   -9.5776   14.3084    9.8881 O   0  0  0  0  0  0
   -6.1478   13.9385    8.7030 P   0  0  0  0  0  0
   -5.0333   12.8088    8.0787 O   0  0  0  0  0  0
   -6.5509   14.8372    7.5981 O   0  0  0  0  0  0
   -5.2381   12.1561    6.8376 C   0  0  0  0  0  0
   -4.0761   11.1903    6.4814 C   0  0  0  0  0  0
   -4.4038   10.5030    5.1120 C   0  0  2  0  0  0
   -2.7562   11.9920    6.4324 C   0  0  0  0  0  0
   -3.9521   10.1211    7.5912 C   0  0  0  0  0  0
   -3.5378    9.2779    4.7618 C   0  0  0  0  0  0
   -4.3181   11.4331    4.0468 O   0  0  0  0  0  0
   -3.6353    8.8200    3.5036 N   0  0  0  0  0  0
   -2.7802    8.7803    5.5958 O   0  0  0  0  0  0
   -2.9810    7.6197    2.9952 C   0  0  0  0  0  0
   -1.6619    7.9567    2.2731 C   0  0  0  0  0  0
   -0.7861    6.7237    2.0349 C   0  0  0  0  0  0
    0.4442    6.9510    1.5502 N   0  0  0  0  0  0
   -1.2171    5.5959    2.2756 O   0  0  0  0  0  0
    1.4287    5.9176    1.2523 C   0  0  0  0  0  0
    1.7677    5.0829    2.4997 C   0  0  0  0  0  0
    3.3245    4.1630    2.3054 S   0  0  0  0  0  0
    2.7687    2.8314    1.2062 C   0  0  0  0  0  0
    2.2872    1.5551    1.9163 C   0  0  1  0  0  0
    2.7771    2.9262   -0.0212 O   0  0  0  0  0  0
    3.4806    0.6810    2.3573 C   0  0  0  0  0  0
    1.3579    1.8630    3.1144 C   0  0  0  0  0  0
    3.1333   -0.5454    3.2060 C   0  0  0  0  0  0
    4.6455    0.9034    2.0229 O   0  0  0  0  0  0
    0.9436    0.5899    3.8703 C   0  0  0  0  0  0
    2.1781   -0.1848    4.3584 C   0  0  0  0  0  0
  -11.1260    7.3187   11.3247 H   0  0  0  0  0  0
  -10.2683    7.6167   14.2435 H   0  0  0  0  0  0
  -11.8147    9.7807   12.9465 H   0  0  0  0  0  0
  -13.4680   10.6224   11.3931 H   0  0  0  0  0  0
  -12.6127    7.6250   13.3729 H   0  0  0  0  0  0
  -11.9332   10.3735    9.1560 H   0  0  0  0  0  0
   -6.7396   10.5639    9.7368 H   0  0  0  0  0  0
  -11.5578   12.3237   10.6879 H   0  0  0  0  0  0
  -10.6179   11.2996   11.7428 H   0  0  0  0  0  0
   -4.4958    9.7846   13.5272 H   0  0  0  0  0  0
   -5.6037    8.9785   14.6219 H   0  0  0  0  0  0
   -6.1877   11.6194    6.8591 H   0  0  0  0  0  0
   -5.3458   12.9315    6.0787 H   0  0  0  0  0  0
   -5.4445   10.1751    5.1394 H   0  0  0  0  0  0
   -1.8902   11.3561    6.2529 H   0  0  0  0  0  0
   -2.7732   12.7575    5.6565 H   0  0  0  0  0  0
   -2.5798   12.4970    7.3809 H   0  0  0  0  0  0
   -3.1238    9.4355    7.4124 H   0  0  0  0  0  0
   -3.7689   10.5773    8.5644 H   0  0  0  0  0  0
   -4.8623    9.5263    7.6732 H   0  0  0  0  0  0
   -4.2649   10.9557    3.2336 H   0  0  0  0  0  0
   -4.2141    9.3347    2.8557 H   0  0  0  0  0  0
   -2.8053    6.9178    3.8127 H   0  0  0  0  0  0
   -3.6735    7.1300    2.3095 H   0  0  0  0  0  0
   -1.8726    8.4181    1.3078 H   0  0  0  0  0  0
   -1.0991    8.6894    2.8537 H   0  0  0  0  0  0
    0.7191    7.9079    1.3818 H   0  0  0  0  0  0
    1.0165    5.2712    0.4770 H   0  0  0  0  0  0
    2.3247    6.3731    0.8281 H   0  0  0  0  0  0
    1.8111    5.7018    3.3966 H   0  0  0  0  0  0
    0.9753    4.3536    2.6699 H   0  0  0  0  0  0
    1.7213    0.9685    1.1917 H   0  0  0  0  0  0
    1.8490    2.5448    3.8111 H   0  0  0  0  0  0
    0.4633    2.3792    2.7637 H   0  0  0  0  0  0
    2.6710   -1.2891    2.5563 H   0  0  0  0  0  0
    4.0464   -0.9929    3.5999 H   0  0  0  0  0  0
    0.3097    0.8511    4.7183 H   0  0  0  0  0  0
    0.3432   -0.0464    3.2188 H   0  0  0  0  0  0
    1.8613   -1.0947    4.8688 H   0  0  0  0  0  0
    2.7116    0.4102    5.1012 H   0  0  0  0  0  0
  -15.8233   10.1289    9.7973 O   0  5  0  0  0  0
  -13.7200   10.3201    8.2579 O   0  5  0  0  0  0
   -8.2597   12.9575   11.6043 O   0  5  0  0  0  0
   -5.5725   14.5201    9.9380 O   0  5  0  0  0  0
  1  2  1  0  0  0
  1  3  1  0  0  0
  1  4  1  0  0  0
  2  5  1  0  0  0
  2  6  1  0  0  0
  2 54  1  0  0  0
  3  7  2  0  0  0
  3  8  1  0  0  0
  4  9  2  0  0  0
  4 55  1  0  0  0
  5 10  1  0  0  0
  5 11  1  0  0  0
  5 56  1  0  0  0
  6 12  1  0  0  0
  7 13  1  0  0  0
  7  9  1  0  0  0
  8 14  2  0  0  0
 10 15  1  0  0  0
 10 12  1  0  0  0
 10 57  1  0  0  0
 11 58  1  0  0  0
 12 16  1  0  0  0
 12 59  1  0  0  0
 13 17  2  0  0  0
 13 18  1  0  0  0
 14 17  1  0  0  0
 14 60  1  0  0  0
 15 19  1  0  0  0
 16 20  1  0  0  0
 16 61  1  0  0  0
 16 62  1  0  0  0
 18 63  1  0  0  0
 18 64  1  0  0  0
 19 21  2  0  0  0
 19 94  1  0  0  0
 19 95  1  0  0  0
 20 22  1  0  0  0
 22 23  1  0  0  0
 22 24  2  0  0  0
 22 96  1  0  0  0
 23 25  1  0  0  0
 25 26  1  0  0  0
 25 27  2  0  0  0
 25 97  1  0  0  0
 26 28  1  0  0  0
 28 29  1  0  0  0
 28 65  1  0  0  0
 28 66  1  0  0  0
 29 30  1  0  0  0
 29 31  1  0  0  0
 29 32  1  0  0  0
 30 33  1  0  0  0
 30 34  1  0  0  0
 30 67  1  0  0  0
 31 68  1  0  0  0
 31 69  1  0  0  0
 31 70  1  0  0  0
 32 71  1  0  0  0
 32 72  1  0  0  0
 32 73  1  0  0  0
 33 35  1  0  0  0
 33 36  2  0  0  0
 34 74  1  0  0  0
 35 37  1  0  0  0
 35 75  1  0  0  0
 37 38  1  0  0  0
 37 76  1  0  0  0
 37 77  1  0  0  0
 38 39  1  0  0  0
 38 78  1  0  0  0
 38 79  1  0  0  0
 39 40  1  0  0  0
 39 41  2  0  0  0
 40 42  1  0  0  0
 40 80  1  0  0  0
 42 43  1  0  0  0
 42 81  1  0  0  0
 42 82  1  0  0  0
 43 44  1  0  0  0
 43 83  1  0  0  0
 43 84  1  0  0  0
 44 45  1  0  0  0
 45 46  1  0  0  0
 45 47  2  0  0  0
 46 48  1  0  0  0
 46 49  1  0  0  0
 46 85  1  0  0  0
 48 50  1  0  0  0
 48 51  2  0  0  0
 49 52  1  0  0  0
 49 86  1  0  0  0
 49 87  1  0  0  0
 50 53  1  0  0  0
 50 88  1  0  0  0
 50 89  1  0  0  0
 52 53  1  0  0  0
 52 90  1  0  0  0
 52 91  1  0  0  0
 53 92  1  0  0  0
 53 93  1  0  0  0
M  CHG  4  94  -1  95  -1  96  -1  97  -1
M  END
> <i_ionizer_Ion_state_n>
30

> <i_ionizer_Tot_Q>
-4

> <s_ionizer_Ion_centers>
94_95_96_97

> <s_ionizer_Ion_types>
OM_OM_OM_OM

> <s_ionizer_Ion_ctrs_in>
21_22_26_30

> <r_ionizer_Ionization_penalty>
4.85714e-05

> <r_ionizer_Ionization_penalty_charging>
2.98356e-05

> <r_ionizer_Ionization_penalty_neutral>
1.87357e-05

> <s_st_Chirality_1>
2_R_6_1_5_54

> <s_st_Chirality_2>
5_R_11_2_10_56

> <s_st_Chirality_3>
10_R_15_5_12_57

> <s_st_Chirality_4>
12_R_6_10_16_59

> <s_st_Chirality_5>
30_R_34_33_29_67

> <s_st_Chirality_6>
46_R_45_48_49_85

> <i_mmod_Serial_Number-OPLS-2005>
915

> <i_i_glide_lignum>
903

> <r_i_docking_score>
-6.71913

> <r_i_glide_gscore>
-6.71913

> <r_i_glide_lipo>
-1.05791

> <r_i_glide_hbond>
-1.61691

> <r_i_glide_metal>
0

> <r_i_glide_eburp>
1.11022e-16

> <r_i_glide_evdw>
-46.42

> <r_i_glide_ecoul>
-8.19266

> <r_i_glide_erotb>
0.423084

> <r_i_glide_esite>
0.0654652

> <r_i_glide_emodel>
-102.865

> <r_i_glide_energy>
-54.6126

> <r_i_glide_einternal>
15.7933

> <i_i_glide_confnum>
660

> <i_i_glide_posenum>
552

$$$$
C05300
                    3D
 Structure written by MMmdl.
 43 46  0  0  1  0            999 V2000
    3.1111    1.8648    2.3427 C   0  0  2  0  0  0
    2.6115    3.3334    2.3814 C   0  0  2  0  0  0
    2.1998    0.8676    3.1274 C   0  0  1  0  0  0
    4.5399    1.7161    2.9096 C   0  0  0  0  0  0
    1.0779    3.3790    2.2119 C   0  0  2  0  0  0
    3.3140    4.2238    1.3472 C   0  0  0  0  0  0
    3.2050    0.0206    3.9103 C   0  0  0  0  0  0
    1.2512    1.6109    4.1002 C   0  0  0  0  0  0
    1.4009   -0.0593    2.1838 C   0  0  0  0  0  0
    4.6321    0.3012    3.4772 C   0  0  2  0  0  0
    0.5171    4.7701    1.9001 C   0  0  0  0  0  0
    0.3823    2.6858    3.4104 C   0  0  0  0  0  0
    2.8785    5.6844    1.4987 C   0  0  0  0  0  0
    2.8951   -0.8054    4.7692 O   0  0  0  0  0  0
    5.5352    0.2083    4.5603 O   0  0  0  0  0  0
    1.3693    5.8519    1.5570 C   0  0  0  0  0  0
   -0.8814    4.9770    1.9140 C   0  0  0  0  0  0
    0.8182    7.1173    1.2648 C   0  0  0  0  0  0
   -1.4254    6.2410    1.6186 C   0  0  0  0  0  0
   -0.5747    7.3140    1.2966 C   0  0  0  0  0  0
   -1.0963    8.5420    1.0108 O   0  0  0  0  0  0
    3.1368    1.5427    1.3001 H   0  0  0  0  0  0
    2.8399    3.7555    3.3619 H   0  0  0  0  0  0
    0.8487    2.7980    1.3180 H   0  0  0  0  0  0
    5.2995    1.8976    2.1487 H   0  0  0  0  0  0
    4.7076    2.4407    3.7085 H   0  0  0  0  0  0
    4.3976    4.1568    1.4465 H   0  0  0  0  0  0
    3.0719    3.8730    0.3430 H   0  0  0  0  0  0
    0.6077    0.9069    4.6299 H   0  0  0  0  0  0
    1.8470    2.0983    4.8744 H   0  0  0  0  0  0
    0.7781   -0.7564    2.7460 H   0  0  0  0  0  0
    0.7401    0.5031    1.5253 H   0  0  0  0  0  0
    2.0604   -0.6516    1.5477 H   0  0  0  0  0  0
    4.9072   -0.4124    2.6998 H   0  0  0  0  0  0
    0.1172    3.4269    4.1656 H   0  0  0  0  0  0
   -0.5579    2.2453    3.0771 H   0  0  0  0  0  0
    3.2977    6.1000    2.4157 H   0  0  0  0  0  0
    3.2815    6.2748    0.6749 H   0  0  0  0  0  0
    5.3532   -0.5919    5.0299 H   0  0  0  0  0  0
   -1.5519    4.1644    2.1503 H   0  0  0  0  0  0
    1.4675    7.9429    1.0114 H   0  0  0  0  0  0
   -2.4962    6.3806    1.6388 H   0  0  0  0  0  0
   -0.4369    9.2096    0.9003 H   0  0  0  0  0  0
  1  2  1  0  0  0
  1  3  1  0  0  0
  1  4  1  0  0  0
  1 22  1  0  0  0
  2  5  1  0  0  0
  2  6  1  0  0  0
  2 23  1  0  0  0
  3  7  1  0  0  0
  3  8  1  0  0  0
  3  9  1  0  0  0
  4 10  1  0  0  0
  4 25  1  0  0  0
  4 26  1  0  0  0
  5 11  1  0  0  0
  5 12  1  0  0  0
  5 24  1  0  0  0
  6 13  1  0  0  0
  6 27  1  0  0  0
  6 28  1  0  0  0
  7 14  2  0  0  0
  7 10  1  0  0  0
  8 12  1  0  0  0
  8 29  1  0  0  0
  8 30  1  0  0  0
  9 31  1  0  0  0
  9 32  1  0  0  0
  9 33  1  0  0  0
 10 15  1  0  0  0
 10 34  1  0  0  0
 11 16  2  0  0  0
 11 17  1  0  0  0
 12 35  1  0  0  0
 12 36  1  0  0  0
 13 16  1  0  0  0
 13 37  1  0  0  0
 13 38  1  0  0  0
 15 39  1  0  0  0
 16 18  1  0  0  0
 17 19  2  0  0  0
 17 40  1  0  0  0
 18 20  2  0  0  0
 18 41  1  0  0  0
 19 20  1  0  0  0
 19 42  1  0  0  0
 20 21  1  0  0  0
 21 43  1  0  0  0
M  END
> <i_ionizer_Ion_state_n>
0

> <i_ionizer_Tot_Q>
0

> <s_ionizer_Ion_centers>


> <s_ionizer_Ion_types>


> <s_ionizer_Ion_ctrs_in>


> <r_ionizer_Ionization_penalty>
0.00059219

> <r_ionizer_Ionization_penalty_charging>
0

> <r_ionizer_Ionization_penalty_neutral>
0.00059219

> <s_st_Chirality_1>
1_R_3_2_4_22

> <s_st_Chirality_2>
2_S_1_5_6_23

> <s_st_Chirality_3>
3_S_7_1_8_9

> <s_st_Chirality_4>
5_R_11_2_12_24

> <s_st_Chirality_5>
10_R_15_7_4_34

> <i_mmod_Serial_Number-OPLS-2005>
671

> <i_i_glide_lignum>
664

> <r_i_docking_score>
-6.71132

> <r_i_glide_gscore>
-6.71132

> <r_i_glide_lipo>
-1.55051

> <r_i_glide_hbond>
-0.9

> <r_i_glide_metal>
0

> <r_i_glide_eburp>
-1.61838

> <r_i_glide_evdw>
-19.765

> <r_i_glide_ecoul>
-3.6344

> <r_i_glide_erotb>
0

> <r_i_glide_esite>
-0.697789

> <r_i_glide_emodel>
-33.5403

> <r_i_glide_energy>
-23.3994

> <r_i_glide_einternal>
0.611117

> <i_i_glide_confnum>
1

> <i_i_glide_posenum>
76

$$$$
C00214
                    3D
 Structure written by MMmdl.
 31 32  0  0  1  0            999 V2000
    0.9962    1.9121    3.6250 C   0  0  2  0  0  0
    1.1204    3.2150    2.8634 N   0  0  0  0  0  0
    2.1883    1.6865    4.3765 O   0  0  0  0  0  0
    0.9080    0.7395    2.6555 C   0  0  0  0  0  0
   -0.0278    4.0177    2.7042 C   0  0  0  0  0  0
    2.3186    3.6247    2.2931 C   0  0  0  0  0  0
    2.6230    0.3462    4.2617 C   0  0  1  0  0  0
    1.5815   -0.3889    3.4046 C   0  0  1  0  0  0
    0.1222    5.2046    1.9917 N   0  0  0  0  0  0
   -1.1284    3.7061    3.1568 O   0  0  0  0  0  0
    2.4649    4.7798    1.5948 C   0  0  0  0  0  0
    4.0271    0.2885    3.6361 C   0  0  0  0  0  0
    0.6604   -1.1000    4.2063 O   0  0  0  0  0  0
    1.3082    5.6611    1.4141 C   0  0  0  0  0  0
    3.7906    5.1996    0.9815 C   0  0  0  0  0  0
    5.0161    0.5123    4.6196 O   0  0  0  0  0  0
    1.3147    6.7314    0.8086 O   0  0  0  0  0  0
    0.0998    1.9987    4.2422 H   0  0  0  0  0  0
   -0.1411    0.4865    2.4920 H   0  0  0  0  0  0
    1.3712    0.9477    1.6900 H   0  0  0  0  0  0
    3.1880    2.9953    2.4013 H   0  0  0  0  0  0
    2.6315   -0.1168    5.2510 H   0  0  0  0  0  0
    2.0740   -1.0680    2.7068 H   0  0  0  0  0  0
   -0.6974    5.7824    1.8796 H   0  0  0  0  0  0
    4.2080   -0.6716    3.1527 H   0  0  0  0  0  0
    4.1258    1.0573    2.8693 H   0  0  0  0  0  0
    1.1481   -1.6832    4.7696 H   0  0  0  0  0  0
    4.5777    4.4713    1.1785 H   0  0  0  0  0  0
    3.6938    5.3033   -0.0998 H   0  0  0  0  0  0
    4.1123    6.1583    1.3899 H   0  0  0  0  0  0
    5.0506   -0.2413    5.1895 H   0  0  0  0  0  0
  1  2  1  0  0  0
  1  3  1  0  0  0
  1  4  1  0  0  0
  1 18  1  0  0  0
  2  5  1  0  0  0
  2  6  1  0  0  0
  3  7  1  0  0  0
  4  8  1  0  0  0
  4 19  1  0  0  0
  4 20  1  0  0  0
  5  9  1  0  0  0
  5 10  2  0  0  0
  6 11  2  0  0  0
  6 21  1  0  0  0
  7 12  1  0  0  0
  7  8  1  0  0  0
  7 22  1  0  0  0
  8 13  1  0  0  0
  8 23  1  0  0  0
  9 14  1  0  0  0
  9 24  1  0  0  0
 11 15  1  0  0  0
 11 14  1  0  0  0
 12 16  1  0  0  0
 12 25  1  0  0  0
 12 26  1  0  0  0
 13 27  1  0  0  0
 14 17  2  0  0  0
 15 28  1  0  0  0
 15 29  1  0  0  0
 15 30  1  0  0  0
 16 31  1  0  0  0
M  END
> <i_ionizer_Ion_state_n>
0

> <i_ionizer_Tot_Q>
0

> <s_ionizer_Ion_centers>


> <s_ionizer_Ion_types>


> <s_ionizer_Ion_ctrs_in>


> <r_ionizer_Ionization_penalty>
0

> <r_ionizer_Ionization_penalty_charging>
0

> <r_ionizer_Ionization_penalty_neutral>
0

> <s_st_Chirality_1>
1_R_3_2_4_18

> <s_st_Chirality_2>
7_R_3_8_12_22

> <s_st_Chirality_3>
8_S_13_7_4_23

> <i_mmod_Serial_Number-OPLS-2005>
143

> <i_i_glide_lignum>
141

> <r_i_docking_score>
-6.69875

> <r_i_glide_gscore>
-6.69875

> <r_i_glide_lipo>
-0.754834

> <r_i_glide_hbond>
-1.25727

> <r_i_glide_metal>
0

> <r_i_glide_eburp>
-1.95278

> <r_i_glide_evdw>
-24.9223

> <r_i_glide_ecoul>
-6.39925

> <r_i_glide_erotb>
0.675509

> <r_i_glide_esite>
-0.775676

> <r_i_glide_emodel>
-47.3299

> <r_i_glide_energy>
-31.3216

> <r_i_glide_einternal>
3.31196

> <i_i_glide_confnum>
10

> <i_i_glide_posenum>
286

$$$$
C03838
                    3D
 Structure written by MMmdl.
 32 32  0  0  1  0            999 V2000
    1.7004    2.2722    2.9035 C   0  0  1  0  0  0
    3.0398    2.6467    3.2470 O   0  0  0  0  0  0
    1.8624    0.8602    2.3205 C   0  0  2  0  0  0
    0.5539    2.3720    3.9402 C   0  0  0  0  0  0
    3.8865    1.5596    3.3691 C   0  0  2  0  0  0
    3.0508    0.3177    3.0830 C   0  0  2  0  0  0
    2.0972    0.8877    0.9230 O   0  0  0  0  0  0
    0.1567    3.6998    4.2483 O   0  0  0  0  0  0
    4.5504    1.4098    4.6435 N   0  0  0  0  0  0
    3.7614   -0.6828    2.3726 O   0  0  0  0  0  0
   -0.2460    4.7520    2.8516 P   0  0  0  0  0  0
    5.6133    0.6178    4.8425 C   0  0  0  0  0  0
   -0.2986    6.1529    3.5000 O   0  0  0  0  0  0
    6.2153    0.6398    6.2452 C   0  0  0  0  0  0
    6.1027   -0.1068    3.9766 O   0  0  0  0  0  0
    1.4611    2.9544    2.0863 H   0  0  0  0  0  0
    0.9715    0.2541    2.4769 H   0  0  0  0  0  0
   -0.2997    1.7856    3.6074 H   0  0  0  0  0  0
    0.8686    1.8962    4.8689 H   0  0  0  0  0  0
    4.6490    1.7210    2.6047 H   0  0  0  0  0  0
    2.7222   -0.1396    4.0182 H   0  0  0  0  0  0
    2.9032    1.3601    0.7779 H   0  0  0  0  0  0
    4.3265    2.1089    5.3500 H   0  0  0  0  0  0
    4.3354   -1.1290    2.9762 H   0  0  0  0  0  0
    7.1089    1.2649    6.2789 H   0  0  0  0  0  0
    5.4899    1.0753    6.9328 H   0  0  0  0  0  0
    6.7880   -0.7007    7.6823 H   0  0  0  0  0  0
    5.7725   -1.3378    6.5411 H   0  0  0  0  0  0
    0.9500    4.5116    1.9009 O   0  5  0  0  0  0
   -1.5989    4.1664    2.3976 O   0  5  0  0  0  0
    6.5525   -0.7176    6.7015 N   0  3  0  0  0  0
    7.3677   -1.0458    6.1815 H   0  0  0  0  0  0
  1  2  1  0  0  0
  1  3  1  0  0  0
  1  4  1  0  0  0
  1 16  1  0  0  0
  2  5  1  0  0  0
  3  6  1  0  0  0
  3  7  1  0  0  0
  3 17  1  0  0  0
  4  8  1  0  0  0
  4 18  1  0  0  0
  4 19  1  0  0  0
  5  9  1  0  0  0
  5  6  1  0  0  0
  5 20  1  0  0  0
  6 10  1  0  0  0
  6 21  1  0  0  0
  7 22  1  0  0  0
  8 11  1  0  0  0
  9 12  1  0  0  0
  9 23  1  0  0  0
 10 24  1  0  0  0
 11 13  2  0  0  0
 11 29  1  0  0  0
 11 30  1  0  0  0
 12 14  1  0  0  0
 12 15  2  0  0  0
 14 25  1  0  0  0
 14 26  1  0  0  0
 14 31  1  0  0  0
 27 31  1  0  0  0
 28 31  1  0  0  0
 31 32  1  0  0  0
M  CHG  3  29  -1  30  -1  31   1
M  END
> <i_ionizer_Ion_state_n>
7

> <i_ionizer_Tot_Q>
-1

> <s_ionizer_Ion_centers>
29_30_31

> <s_ionizer_Ion_types>
OM_OM_N5

> <s_ionizer_Ion_ctrs_in>
13_14_18

> <r_ionizer_Ionization_penalty>
0.000202249

> <r_ionizer_Ionization_penalty_charging>
0.000202249

> <r_ionizer_Ionization_penalty_neutral>
0

> <s_st_Chirality_1>
1_R_2_3_4_16

> <s_st_Chirality_2>
5_R_2_9_6_20

> <s_st_Chirality_3>
3_R_7_6_1_17

> <s_st_Chirality_4>
6_R_10_5_3_21

> <i_mmod_Serial_Number-OPLS-2005>
571

> <i_i_glide_lignum>
565

> <r_i_docking_score>
-6.68606

> <r_i_glide_gscore>
-6.68606

> <r_i_glide_lipo>
-0.480107

> <r_i_glide_hbond>
-2.07234

> <r_i_glide_metal>
0

> <r_i_glide_eburp>
-2.02748

> <r_i_glide_evdw>
-17.1764

> <r_i_glide_ecoul>
-16.9214

> <r_i_glide_erotb>
1.01966

> <r_i_glide_esite>
-0.0595331

> <r_i_glide_emodel>
-82.7941

> <r_i_glide_energy>
-34.0979

> <r_i_glide_einternal>
5.74038

> <i_i_glide_confnum>
61

> <i_i_glide_posenum>
168

$$$$
C00356
                    3D
 Structure written by MMmdl.
 97 99  0  0  1  0            999 V2000
  -12.6951   14.2808    5.9319 N   0  0  0  0  0  0
  -13.6383   13.4877    6.7910 C   0  0  2  0  0  0
  -11.9224   15.3542    6.3269 C   0  0  0  0  0  0
  -12.3659   14.0807    4.6063 C   0  0  0  0  0  0
  -13.0752   13.4038    8.0734 O   0  0  0  0  0  0
  -13.7643   12.0407    6.2770 C   0  0  1  0  0  0
  -11.2293   15.7821    5.1617 C   0  0  0  0  0  0
  -11.8315   15.9265    7.5631 N   0  0  0  0  0  0
  -11.5279   14.9433    4.0971 N   0  0  0  0  0  0
  -12.5260   12.1034    8.3013 C   0  0  1  0  0  0
  -13.5178   11.2219    7.5322 C   0  0  1  0  0  0
  -15.0383   11.7106    5.7658 O   0  0  0  0  0  0
  -10.4034   16.9230    5.3197 C   0  0  0  0  0  0
  -11.0135   16.9821    7.5600 C   0  0  0  0  0  0
  -11.0710   12.0625    7.7881 C   0  0  0  0  0  0
  -14.7552   11.1362    8.2400 O   0  0  0  0  0  0
  -10.3186   17.4989    6.5414 N   0  0  0  0  0  0
   -9.6975   17.4580    4.3150 N   0  0  0  0  0  0
  -10.2135   12.9366    8.4896 O   0  0  0  0  0  0
  -15.0064    9.7297    9.3269 P   0  0  0  0  0  0
   -9.1076   12.3138    9.6213 P   0  0  0  0  0  0
  -16.3112   10.0873   10.0720 O   0  0  0  0  0  0
   -7.7050   12.0634    8.6864 O   0  0  0  0  0  0
   -8.8142   13.3792   10.6076 O   0  0  0  0  0  0
   -7.2308   12.3044    7.0690 P   0  0  0  0  0  0
   -5.8549   11.3163    6.8773 O   0  0  0  0  0  0
   -8.2964   11.7563    6.1989 O   0  0  0  0  0  0
   -5.1521   11.2350    5.6483 C   0  0  0  0  0  0
   -4.0799   10.1149    5.6625 C   0  0  0  0  0  0
   -3.4285   10.0424    4.2392 C   0  0  2  0  0  0
   -3.0414   10.4235    6.7663 C   0  0  0  0  0  0
   -4.7682    8.7722    6.0005 C   0  0  0  0  0  0
   -2.5610    8.7983    3.9696 C   0  0  0  0  0  0
   -2.6501   11.1981    3.9822 O   0  0  0  0  0  0
   -2.3089    8.5168    2.6826 N   0  0  0  0  0  0
   -2.1109    8.1267    4.8987 O   0  0  0  0  0  0
   -1.5764    7.3437    2.2256 C   0  0  0  0  0  0
   -0.2549    7.7573    1.5549 C   0  0  0  0  0  0
    0.6745    6.5701    1.2828 C   0  0  0  0  0  0
    1.9106    6.8679    0.8575 N   0  0  0  0  0  0
    0.2825    5.4149    1.4492 O   0  0  0  0  0  0
    2.9271    5.8763    0.5330 C   0  0  0  0  0  0
    3.5576    5.3065    1.8086 C   0  0  0  0  0  0
    2.4457    4.1218    2.6207 S   0  0  0  0  0  0
    3.6815    2.9751    3.2823 C   0  0  0  0  0  0
    3.7843    1.6224    2.5673 C   0  0  0  0  0  0
    4.3865    3.2377    4.2563 O   0  0  0  0  0  0
    3.4284    0.3782    3.4269 C   0  0  1  0  0  0
    2.1249    0.5802    4.2635 C   0  0  0  0  0  0
    3.3038   -0.8420    2.4899 C   0  0  0  0  0  0
    4.5273    0.1000    4.2769 O   0  0  0  0  0  0
    0.9342    1.2121    3.5185 C   0  0  0  0  0  0
    0.4790    0.5664    2.5496 O   0  0  0  0  0  0
  -14.5677   14.0577    6.7955 H   0  0  0  0  0  0
  -12.7922   13.2852    4.0123 H   0  0  0  0  0  0
  -12.9928   11.8385    5.5352 H   0  0  0  0  0  0
  -12.5166   11.8791    9.3664 H   0  0  0  0  0  0
  -13.1363   10.2253    7.3090 H   0  0  0  0  0  0
  -15.6588   11.9509    6.4415 H   0  0  0  0  0  0
  -10.9068   17.4909    8.5065 H   0  0  0  0  0  0
  -10.6384   11.0706    7.8917 H   0  0  0  0  0  0
  -11.0523   12.2999    6.7240 H   0  0  0  0  0  0
   -9.1369   18.2810    4.4769 H   0  0  0  0  0  0
   -9.7894   17.0738    3.3857 H   0  0  0  0  0  0
   -5.8550   11.0761    4.8296 H   0  0  0  0  0  0
   -4.6968   12.2059    5.4625 H   0  0  0  0  0  0
   -4.2316   10.0519    3.5000 H   0  0  0  0  0  0
   -2.2987    9.6330    6.8655 H   0  0  0  0  0  0
   -2.5094   11.3548    6.5728 H   0  0  0  0  0  0
   -3.5232   10.5244    7.7388 H   0  0  0  0  0  0
   -4.0574    7.9482    6.0622 H   0  0  0  0  0  0
   -5.2740    8.8164    6.9652 H   0  0  0  0  0  0
   -5.5154    8.5099    5.2508 H   0  0  0  0  0  0
   -2.5119   11.2697    3.0506 H   0  0  0  0  0  0
   -2.6556    9.1515    1.9780 H   0  0  0  0  0  0
   -1.3797    6.6891    3.0768 H   0  0  0  0  0  0
   -2.2011    6.7855    1.5257 H   0  0  0  0  0  0
   -0.4577    8.2587    0.6079 H   0  0  0  0  0  0
    0.2647    8.4782    2.1882 H   0  0  0  0  0  0
    2.1622    7.8404    0.7547 H   0  0  0  0  0  0
    2.4758    5.0721   -0.0505 H   0  0  0  0  0  0
    3.6948    6.3367   -0.0910 H   0  0  0  0  0  0
    4.4972    4.8059    1.5704 H   0  0  0  0  0  0
    3.7846    6.1145    2.5054 H   0  0  0  0  0  0
    3.1236    1.6613    1.7003 H   0  0  0  0  0  0
    4.7936    1.5236    2.1652 H   0  0  0  0  0  0
    1.7654   -0.3756    4.6438 H   0  0  0  0  0  0
    2.3495    1.1890    5.1404 H   0  0  0  0  0  0
    2.4631   -0.7263    1.8053 H   0  0  0  0  0  0
    4.2023   -0.9716    1.8853 H   0  0  0  0  0  0
    3.1526   -1.7718    3.0391 H   0  0  0  0  0  0
    4.3490   -0.7299    4.7028 H   0  0  0  0  0  0
  -15.0971    8.5655    8.3156 O   0  5  0  0  0  0
  -13.7175    9.7746   10.1769 O   0  5  0  0  0  0
   -9.6111   11.0036   10.0920 O   0  5  0  0  0  0
   -6.8243   13.7194    6.9056 O   0  5  0  0  0  0
    0.5062    2.3236    3.9033 O   0  5  0  0  0  0
  1  2  1  0  0  0
  1  3  1  0  0  0
  1  4  1  0  0  0
  2  5  1  0  0  0
  2  6  1  0  0  0
  2 54  1  0  0  0
  3  7  2  0  0  0
  3  8  1  0  0  0
  4  9  2  0  0  0
  4 55  1  0  0  0
  5 10  1  0  0  0
  6 11  1  0  0  0
  6 12  1  0  0  0
  6 56  1  0  0  0
  7 13  1  0  0  0
  7  9  1  0  0  0
  8 14  2  0  0  0
 10 15  1  0  0  0
 10 11  1  0  0  0
 10 57  1  0  0  0
 11 16  1  0  0  0
 11 58  1  0  0  0
 12 59  1  0  0  0
 13 17  2  0  0  0
 13 18  1  0  0  0
 14 17  1  0  0  0
 14 60  1  0  0  0
 15 19  1  0  0  0
 15 61  1  0  0  0
 15 62  1  0  0  0
 16 20  1  0  0  0
 18 63  1  0  0  0
 18 64  1  0  0  0
 19 21  1  0  0  0
 20 22  2  0  0  0
 20 93  1  0  0  0
 20 94  1  0  0  0
 21 23  1  0  0  0
 21 24  2  0  0  0
 21 95  1  0  0  0
 23 25  1  0  0  0
 25 26  1  0  0  0
 25 27  2  0  0  0
 25 96  1  0  0  0
 26 28  1  0  0  0
 28 29  1  0  0  0
 28 65  1  0  0  0
 28 66  1  0  0  0
 29 30  1  0  0  0
 29 31  1  0  0  0
 29 32  1  0  0  0
 30 33  1  0  0  0
 30 34  1  0  0  0
 30 67  1  0  0  0
 31 68  1  0  0  0
 31 69  1  0  0  0
 31 70  1  0  0  0
 32 71  1  0  0  0
 32 72  1  0  0  0
 32 73  1  0  0  0
 33 35  1  0  0  0
 33 36  2  0  0  0
 34 74  1  0  0  0
 35 37  1  0  0  0
 35 75  1  0  0  0
 37 38  1  0  0  0
 37 76  1  0  0  0
 37 77  1  0  0  0
 38 39  1  0  0  0
 38 78  1  0  0  0
 38 79  1  0  0  0
 39 40  1  0  0  0
 39 41  2  0  0  0
 40 42  1  0  0  0
 40 80  1  0  0  0
 42 43  1  0  0  0
 42 81  1  0  0  0
 42 82  1  0  0  0
 43 44  1  0  0  0
 43 83  1  0  0  0
 43 84  1  0  0  0
 44 45  1  0  0  0
 45 46  1  0  0  0
 45 47  2  0  0  0
 46 48  1  0  0  0
 46 85  1  0  0  0
 46 86  1  0  0  0
 48 49  1  0  0  0
 48 50  1  0  0  0
 48 51  1  0  0  0
 49 52  1  0  0  0
 49 87  1  0  0  0
 49 88  1  0  0  0
 50 89  1  0  0  0
 50 90  1  0  0  0
 50 91  1  0  0  0
 51 92  1  0  0  0
 52 53  2  0  0  0
 52 97  1  0  0  0
M  CHG  5  93  -1  94  -1  95  -1  96  -1  97  -1
M  END
> <i_ionizer_Ion_state_n>
62

> <i_ionizer_Tot_Q>
-5

> <s_ionizer_Ion_centers>
93_94_95_96_97

> <s_ionizer_Ion_types>
OM_OM_OM_OM_OM

> <s_ionizer_Ion_ctrs_in>
22_23_26_30_57

> <r_ionizer_Ionization_penalty>
0.000640761

> <r_ionizer_Ionization_penalty_charging>
0.000622025

> <r_ionizer_Ionization_penalty_neutral>
1.87357e-05

> <s_st_Chirality_1>
2_R_5_1_6_54

> <s_st_Chirality_2>
6_R_12_2_11_56

> <s_st_Chirality_3>
10_R_5_11_15_57

> <s_st_Chirality_4>
11_R_16_6_10_58

> <s_st_Chirality_5>
48_S_51_46_49_50

> <s_st_Chirality_6>
30_R_34_33_29_67

> <i_mmod_Serial_Number-OPLS-2005>
205

> <i_i_glide_lignum>
203

> <r_i_docking_score>
-6.68462

> <r_i_glide_gscore>
-6.68462

> <r_i_glide_lipo>
-1.00334

> <r_i_glide_hbond>
-1.85173

> <r_i_glide_metal>
0

> <r_i_glide_eburp>
-8.34836e-17

> <r_i_glide_evdw>
-40.8015

> <r_i_glide_ecoul>
-9.85783

> <r_i_glide_erotb>
0.486811

> <r_i_glide_esite>
-0.0664618

> <r_i_glide_emodel>
-110.005

> <r_i_glide_energy>
-50.6594

> <r_i_glide_einternal>
20.1744

> <i_i_glide_confnum>
1171

> <i_i_glide_posenum>
302

$$$$
C00362
                    3D
 Structure written by MMmdl.
 35 37  0  0  1  0            999 V2000
    1.2458    5.0912    1.7828 C   0  0  0  0  0  0
    2.0552    4.2018    2.4583 N   0  0  0  0  0  0
   -0.0438    4.8604    2.2181 C   0  0  0  0  0  0
    1.6429    6.0225    0.8610 N   0  0  0  0  0  0
    3.5400    4.0792    2.2960 C   0  0  2  0  0  0
    1.1940    3.4738    3.2475 C   0  0  0  0  0  0
   -0.0569    3.8285    3.1495 N   0  0  0  0  0  0
   -1.1211    5.6498    1.6911 C   0  0  0  0  0  0
    0.6530    6.7499    0.3763 C   0  0  0  0  0  0
    3.8041    3.0097    1.4370 O   0  0  0  0  0  0
    4.1838    3.7180    3.6319 C   0  0  0  0  0  0
   -0.6773    6.5929    0.7563 N   0  0  0  0  0  0
   -2.3187    5.5852    1.9601 O   0  0  0  0  0  0
    0.9189    7.6970   -0.5317 N   0  0  0  0  0  0
    4.2051    1.8515    2.1778 C   0  0  1  0  0  0
    4.0053    2.2143    3.6561 C   0  0  1  0  0  0
    3.4424    0.6118    1.6763 C   0  0  0  0  0  0
    4.9686    1.6212    4.4991 O   0  0  0  0  0  0
    2.0469    0.8578    1.6321 O   0  0  0  0  0  0
    1.0372   -0.1937    2.6723 P   0  0  0  0  0  0
    0.9971    0.6022    3.9952 O   0  0  0  0  0  0
    3.8550    5.0372    1.8808 H   0  0  0  0  0  0
    1.5121    2.6715    3.8960 H   0  0  0  0  0  0
    5.2397    3.9893    3.5863 H   0  0  0  0  0  0
    3.7213    4.2348    4.4732 H   0  0  0  0  0  0
   -1.3832    7.1845    0.3449 H   0  0  0  0  0  0
    1.8731    7.8410   -0.8295 H   0  0  0  0  0  0
    0.1803    8.2672   -0.9162 H   0  0  0  0  0  0
    5.2692    1.7326    1.9662 H   0  0  0  0  0  0
    3.0001    1.9587    3.9943 H   0  0  0  0  0  0
    3.8331    0.2633    0.7199 H   0  0  0  0  0  0
    3.5825   -0.2088    2.3798 H   0  0  0  0  0  0
    4.8733    0.6752    4.4142 H   0  0  0  0  0  0
   -0.2858   -0.2539    1.8768 O   0  5  0  0  0  0
    1.8708   -1.4932    2.6954 O   0  5  0  0  0  0
  1  2  1  0  0  0
  1  3  2  0  0  0
  1  4  1  0  0  0
  2  5  1  0  0  0
  2  6  1  0  0  0
  3  7  1  0  0  0
  3  8  1  0  0  0
  4  9  2  0  0  0
  5 10  1  0  0  0
  5 11  1  0  0  0
  5 22  1  0  0  0
  6  7  2  0  0  0
  6 23  1  0  0  0
  8 12  1  0  0  0
  8 13  2  0  0  0
  9 14  1  0  0  0
  9 12  1  0  0  0
 10 15  1  0  0  0
 11 16  1  0  0  0
 11 24  1  0  0  0
 11 25  1  0  0  0
 12 26  1  0  0  0
 14 27  1  0  0  0
 14 28  1  0  0  0
 15 17  1  0  0  0
 15 16  1  0  0  0
 15 29  1  0  0  0
 16 18  1  0  0  0
 16 30  1  0  0  0
 17 19  1  0  0  0
 17 31  1  0  0  0
 17 32  1  0  0  0
 18 33  1  0  0  0
 19 20  1  0  0  0
 20 21  2  0  0  0
 20 34  1  0  0  0
 20 35  1  0  0  0
M  CHG  2  34  -1  35  -1
M  END
> <i_ionizer_Ion_state_n>
6

> <i_ionizer_Tot_Q>
-2

> <s_ionizer_Ion_centers>
34_35

> <s_ionizer_Ion_types>
OM_OM

> <s_ionizer_Ion_ctrs_in>
21_22

> <r_ionizer_Ionization_penalty>
3.36536e-05

> <r_ionizer_Ionization_penalty_charging>
1.49178e-05

> <r_ionizer_Ionization_penalty_neutral>
1.87357e-05

> <s_st_Chirality_1>
5_R_10_2_11_22

> <s_st_Chirality_2>
15_R_10_16_17_29

> <s_st_Chirality_3>
16_S_18_15_11_30

> <i_mmod_Serial_Number-OPLS-2005>
209

> <i_i_glide_lignum>
207

> <r_i_docking_score>
-6.6835

> <r_i_glide_gscore>
-6.6835

> <r_i_glide_lipo>
-0.527035

> <r_i_glide_hbond>
-0.881419

> <r_i_glide_metal>
0

> <r_i_glide_eburp>
-1.17265

> <r_i_glide_evdw>
-34.9479

> <r_i_glide_ecoul>
-9.1971

> <r_i_glide_erotb>
0.546551

> <r_i_glide_esite>
-0.933414

> <r_i_glide_emodel>
-83.0676

> <r_i_glide_energy>
-44.145

> <r_i_glide_einternal>
6.7964

> <i_i_glide_confnum>
8

> <i_i_glide_posenum>
579

$$$$
C11425
                    3D
 Structure written by MMmdl.
 27 29  0  0  1  0            999 V2000
    2.6871    5.6995    1.4993 C   0  0  0  0  0  0
    3.4835    4.5535    1.6751 C   0  0  0  0  0  0
    1.4984    3.2561    2.2977 C   0  0  0  0  0  0
    2.8918    3.3367    2.0668 C   0  0  0  0  0  0
    3.6987    2.1430    2.2736 C   0  0  0  0  0  0
    3.1344    1.0588    2.8145 C   0  0  0  0  0  0
    1.6581    1.0126    3.1925 C   0  0  2  0  0  0
    0.8918    2.0620    2.6449 O   0  0  0  0  0  0
    1.2961    5.6318    1.7140 C   0  0  0  0  0  0
    0.6973    4.4078    2.1109 C   0  0  0  0  0  0
   -0.7000    4.3562    2.3161 C   0  0  0  0  0  0
   -1.4898    5.5074    2.1313 C   0  0  0  0  0  0
   -0.8908    6.7193    1.7398 C   0  0  0  0  0  0
    0.5000    6.7818    1.5312 C   0  0  0  0  0  0
    1.5703    1.0161    4.5984 O   0  0  0  0  0  0
    0.9869   -0.3345    2.6797 C   0  0  0  0  0  0
   -0.1939   -0.2401    2.2723 O   0  0  0  0  0  0
    3.1490    6.6284    1.1978 H   0  0  0  0  0  0
    4.5493    4.6120    1.5097 H   0  0  0  0  0  0
    4.7426    2.1587    1.9971 H   0  0  0  0  0  0
    3.7194    0.1659    2.9812 H   0  0  0  0  0  0
   -1.1780    3.4356    2.6178 H   0  0  0  0  0  0
   -2.5570    5.4597    2.2908 H   0  0  0  0  0  0
   -1.4983    7.6011    1.5987 H   0  0  0  0  0  0
    0.9515    7.7157    1.2294 H   0  0  0  0  0  0
    2.0794    0.2749    4.8953 H   0  0  0  0  0  0
    1.7000   -1.3628    2.7008 O   0  5  0  0  0  0
  1  9  1  0  0  0
  1  2  2  0  0  0
  1 18  1  0  0  0
  2  4  1  0  0  0
  2 19  1  0  0  0
  3  8  1  0  0  0
  3 10  1  0  0  0
  3  4  2  0  0  0
  4  5  1  0  0  0
  5  6  2  0  0  0
  5 20  1  0  0  0
  6  7  1  0  0  0
  6 21  1  0  0  0
  7 15  1  0  0  0
  7 16  1  0  0  0
  7  8  1  0  0  0
  9 10  2  0  0  0
  9 14  1  0  0  0
 10 11  1  0  0  0
 11 12  2  0  0  0
 11 22  1  0  0  0
 12 13  1  0  0  0
 12 23  1  0  0  0
 13 14  2  0  0  0
 13 24  1  0  0  0
 14 25  1  0  0  0
 15 26  1  0  0  0
 16 17  2  0  0  0
 16 27  1  0  0  0
M  CHG  1  27  -1
M  END
> <i_ionizer_Ion_state_n>
1

> <i_ionizer_Tot_Q>
-1

> <s_ionizer_Ion_centers>
27

> <s_ionizer_Ion_types>
OM

> <s_ionizer_Ion_ctrs_in>
18

> <r_ionizer_Ionization_penalty>
0.00059219

> <r_ionizer_Ionization_penalty_charging>
0.00059219

> <r_ionizer_Ionization_penalty_neutral>
0

> <s_st_Chirality_1>
7_R_8_15_16_6

> <s_st_EZ_1>
4_5_6_7_Z

> <i_mmod_Serial_Number-OPLS-2005>
935

> <i_i_glide_lignum>
918

> <r_i_docking_score>
-6.6828

> <r_i_glide_gscore>
-6.6828

> <r_i_glide_lipo>
-1.07001

> <r_i_glide_hbond>
-0.597732

> <r_i_glide_metal>
0

> <r_i_glide_eburp>
-1.96041

> <r_i_glide_evdw>
-24.059

> <r_i_glide_ecoul>
-5.84076

> <r_i_glide_erotb>
0

> <r_i_glide_esite>
-0.545858

> <r_i_glide_emodel>
-49.8279

> <r_i_glide_energy>
-29.8997

> <r_i_glide_einternal>
2.55869

> <i_i_glide_confnum>
1

> <i_i_glide_posenum>
156

$$$$
C00119
                    3D
 Structure written by MMmdl.
 30 30  0  0  1  0            999 V2000
    3.9075    1.8370    2.9564 C   0  0  1  0  0  0
    2.6714    1.6941    2.2970 O   0  0  0  0  0  0
    3.7580    1.1795    4.3232 C   0  0  1  0  0  0
    4.9660    1.3143    2.1698 O   0  0  0  0  0  0
    1.7849    0.8405    3.0317 C   0  0  1  0  0  0
    2.6501    0.1717    4.1105 C   0  0  1  0  0  0
    4.9582    0.5006    4.6559 O   0  0  0  0  0  0
    4.7168    0.6108    0.6336 P   0  0  0  0  0  0
    0.5478    1.5360    3.6349 C   0  0  0  0  0  0
    3.1334   -1.1001    3.7160 O   0  0  0  0  0  0
    6.0639   -0.4044    0.3968 O   0  0  0  0  0  0
    3.4983   -0.2296    0.6766 O   0  0  0  0  0  0
    0.8936    2.7952    4.1878 O   0  0  0  0  0  0
    7.7633   -0.5304   -0.1465 P   0  0  0  0  0  0
    0.4327    4.2263    3.2066 P   0  0  0  0  0  0
    8.1111    0.9331   -0.5004 O   0  0  0  0  0  0
    1.2352    4.0281    1.8997 O   0  0  0  0  0  0
    4.1123    2.8928    3.1324 H   0  0  0  0  0  0
    3.5086    1.9027    5.0992 H   0  0  0  0  0  0
    1.4802    0.0695    2.3221 H   0  0  0  0  0  0
    2.0711    0.0666    5.0293 H   0  0  0  0  0  0
    4.7159   -0.3475    4.9953 H   0  0  0  0  0  0
   -0.2283    1.6829    2.8825 H   0  0  0  0  0  0
    0.1003    0.9162    4.4121 H   0  0  0  0  0  0
    3.6298   -1.4610    4.4475 H   0  0  0  0  0  0
    4.7976    1.6997   -0.3679 O   0  5  0  0  0  0
    8.4720   -1.1078    1.0995 O   0  5  0  0  0  0
    7.6418   -1.4924   -1.3508 O   0  5  0  0  0  0
   -1.0958    4.0394    3.0870 O   0  5  0  0  0  0
    0.9002    5.3869    4.1119 O   0  5  0  0  0  0
  1  2  1  0  0  0
  1  3  1  0  0  0
  1  4  1  0  0  0
  1 18  1  0  0  0
  2  5  1  0  0  0
  3  6  1  0  0  0
  3  7  1  0  0  0
  3 19  1  0  0  0
  4  8  1  0  0  0
  5  9  1  0  0  0
  5  6  1  0  0  0
  5 20  1  0  0  0
  6 10  1  0  0  0
  6 21  1  0  0  0
  7 22  1  0  0  0
  8 11  1  0  0  0
  8 12  2  0  0  0
  8 26  1  0  0  0
  9 13  1  0  0  0
  9 23  1  0  0  0
  9 24  1  0  0  0
 10 25  1  0  0  0
 11 14  1  0  0  0
 13 15  1  0  0  0
 14 16  2  0  0  0
 14 27  1  0  0  0
 14 28  1  0  0  0
 15 17  2  0  0  0
 15 29  1  0  0  0
 15 30  1  0  0  0
M  CHG  5  26  -1  27  -1  28  -1  29  -1  30  -1
M  END
> <i_ionizer_Ion_state_n>
31

> <i_ionizer_Tot_Q>
-5

> <s_ionizer_Ion_centers>
26_27_28_29_30

> <s_ionizer_Ion_types>
OM_OM_OM_OM_OM

> <s_ionizer_Ion_ctrs_in>
12_17_18_20_21

> <r_ionizer_Ionization_penalty>
3.72945e-05

> <r_ionizer_Ionization_penalty_charging>
3.72945e-05

> <r_ionizer_Ionization_penalty_neutral>
0

> <s_st_Chirality_1>
1_R_4_2_3_18

> <s_st_Chirality_2>
3_R_7_1_6_19

> <s_st_Chirality_3>
5_R_2_6_9_20

> <s_st_Chirality_4>
6_R_10_3_5_21

> <i_mmod_Serial_Number-OPLS-2005>
85

> <i_i_glide_lignum>
84

> <r_i_docking_score>
-6.6593

> <r_i_glide_gscore>
-6.6593

> <r_i_glide_lipo>
-0.398955

> <r_i_glide_hbond>
-2.3619

> <r_i_glide_metal>
0

> <r_i_glide_eburp>
-0.509065

> <r_i_glide_evdw>
-23.7067

> <r_i_glide_ecoul>
-14.0072

> <r_i_glide_erotb>
0.749652

> <r_i_glide_esite>
-0.84177

> <r_i_glide_emodel>
-95.1416

> <r_i_glide_energy>
-37.7139

> <r_i_glide_einternal>
11.7221

> <i_i_glide_confnum>
245

> <i_i_glide_posenum>
714

$$$$
C05843
                    3D
 Structure written by MMmdl.
 19 19  0  0  1  0            999 V2000
    2.4169    0.9714    3.5504 C   0  0  0  0  0  0
    2.4505    2.3955    3.0838 C   0  0  0  0  0  0
    3.4748    0.5517    4.3001 C   0  0  0  0  0  0
    1.3072    0.0572    3.2244 C   0  0  0  0  0  0
    3.6239    3.2032    3.4731 C   0  0  0  0  0  0
    1.5578    2.9016    2.4043 O   0  0  0  0  0  0
    4.5695    1.3319    4.6645 N   0  0  0  0  0  0
    1.2946   -1.1000    3.8978 N   0  0  0  0  0  0
    0.4215    0.2812    2.4016 O   0  0  0  0  0  0
    4.5943    2.6464    4.2197 C   0  0  0  0  0  0
    5.6554    0.7821    5.4601 C   0  0  0  0  0  0
    3.5582   -0.4530    4.6876 H   0  0  0  0  0  0
    3.6836    4.2316    3.1484 H   0  0  0  0  0  0
    0.5588   -1.7673    3.7178 H   0  0  0  0  0  0
    2.0118   -1.3030    4.5772 H   0  0  0  0  0  0
    5.4683    3.2056    4.5214 H   0  0  0  0  0  0
    6.2109    1.5704    5.9692 H   0  0  0  0  0  0
    5.2720    0.1000    6.2197 H   0  0  0  0  0  0
    6.3478    0.2322    4.8224 H   0  0  0  0  0  0
  1  2  1  0  0  0
  1  3  2  0  0  0
  1  4  1  0  0  0
  2  5  1  0  0  0
  2  6  2  0  0  0
  3  7  1  0  0  0
  3 12  1  0  0  0
  4  8  1  0  0  0
  4  9  2  0  0  0
  5 10  2  0  0  0
  5 13  1  0  0  0
  7 11  1  0  0  0
  7 10  1  0  0  0
  8 14  1  0  0  0
  8 15  1  0  0  0
 10 16  1  0  0  0
 11 17  1  0  0  0
 11 18  1  0  0  0
 11 19  1  0  0  0
M  END
> <i_ionizer_Ion_state_n>
0

> <i_ionizer_Tot_Q>
0

> <s_ionizer_Ion_centers>


> <s_ionizer_Ion_types>


> <s_ionizer_Ion_ctrs_in>


> <r_ionizer_Ionization_penalty>
0

> <r_ionizer_Ionization_penalty_charging>
0

> <r_ionizer_Ionization_penalty_neutral>
0

> <i_mmod_Serial_Number-OPLS-2005>
811

> <i_i_glide_lignum>
802

> <r_i_docking_score>
-6.65642

> <r_i_glide_gscore>
-6.65642

> <r_i_glide_lipo>
-0.569898

> <r_i_glide_hbond>
-0.430835

> <r_i_glide_metal>
0

> <r_i_glide_eburp>
-2.5

> <r_i_glide_evdw>
-24.4953

> <r_i_glide_ecoul>
-3.8034

> <r_i_glide_erotb>
0

> <r_i_glide_esite>
-0.815721

> <r_i_glide_emodel>
-37.627

> <r_i_glide_energy>
-28.2987

> <r_i_glide_einternal>
0.351064

> <i_i_glide_confnum>
1

> <i_i_glide_posenum>
203

$$$$
C00475
                    3D
 Structure written by MMmdl.
 30 31  0  0  1  0            999 V2000
    1.9836    1.7540    3.9910 C   0  0  2  0  0  0
    1.9694    2.9694    3.0945 N   0  0  0  0  0  0
    3.2156    1.6995    4.6508 O   0  0  0  0  0  0
    1.8285    0.4723    3.1571 C   0  0  1  0  0  0
    0.8623    3.8480    3.1472 C   0  0  0  0  0  0
    3.0022    3.2152    2.2011 C   0  0  0  0  0  0
    3.7764    0.3968    4.5275 C   0  0  1  0  0  0
    3.2440   -0.0899    3.1783 C   0  0  1  0  0  0
    0.9002   -0.4137    3.7544 O   0  0  0  0  0  0
    0.8829    4.9340    2.3140 N   0  0  0  0  0  0
   -0.0897    3.6488    3.9002 O   0  0  0  0  0  0
    3.0049    4.2910    1.3838 C   0  0  0  0  0  0
    5.3075    0.4884    4.6204 C   0  0  0  0  0  0
    3.2753   -1.4988    3.0380 O   0  0  0  0  0  0
    1.8686    5.1799    1.4736 C   0  0  0  0  0  0
    5.7216    0.4997    5.9709 O   0  0  0  0  0  0
    1.7967    6.2706    0.6988 N   0  0  0  0  0  0
    1.1931    1.8986    4.7295 H   0  0  0  0  0  0
    1.4951    0.6938    2.1421 H   0  0  0  0  0  0
    3.8398    2.5357    2.1430 H   0  0  0  0  0  0
    3.3766   -0.2166    5.3374 H   0  0  0  0  0  0
    3.8229    0.3617    2.3715 H   0  0  0  0  0  0
    1.2586   -0.6841    4.5872 H   0  0  0  0  0  0
    3.8327    4.4489    0.7075 H   0  0  0  0  0  0
    5.7812   -0.3445    4.1000 H   0  0  0  0  0  0
    5.6557    1.4055    4.1445 H   0  0  0  0  0  0
    3.6964   -1.8605    3.8047 H   0  0  0  0  0  0
    5.6075   -0.3681    6.3284 H   0  0  0  0  0  0
    2.5370    6.4829    0.0462 H   0  0  0  0  0  0
    0.9955    6.8806    0.7734 H   0  0  0  0  0  0
  1  2  1  0  0  0
  1  3  1  0  0  0
  1  4  1  0  0  0
  1 18  1  0  0  0
  2  5  1  0  0  0
  2  6  1  0  0  0
  3  7  1  0  0  0
  4  8  1  0  0  0
  4  9  1  0  0  0
  4 19  1  0  0  0
  5 10  1  0  0  0
  5 11  2  0  0  0
  6 12  2  0  0  0
  6 20  1  0  0  0
  7 13  1  0  0  0
  7  8  1  0  0  0
  7 21  1  0  0  0
  8 14  1  0  0  0
  8 22  1  0  0  0
  9 23  1  0  0  0
 10 15  2  0  0  0
 12 15  1  0  0  0
 12 24  1  0  0  0
 13 16  1  0  0  0
 13 25  1  0  0  0
 13 26  1  0  0  0
 14 27  1  0  0  0
 15 17  1  0  0  0
 16 28  1  0  0  0
 17 29  1  0  0  0
 17 30  1  0  0  0
M  END
> <i_ionizer_Ion_state_n>
0

> <i_ionizer_Tot_Q>
0

> <s_ionizer_Ion_centers>


> <s_ionizer_Ion_types>


> <s_ionizer_Ion_ctrs_in>


> <r_ionizer_Ionization_penalty>
0

> <r_ionizer_Ionization_penalty_charging>
0

> <r_ionizer_Ionization_penalty_neutral>
0

> <s_st_Chirality_1>
1_R_3_2_4_18

> <s_st_Chirality_2>
4_R_9_1_8_19

> <s_st_Chirality_3>
7_R_3_8_13_21

> <s_st_Chirality_4>
8_R_14_4_7_22

> <i_mmod_Serial_Number-OPLS-2005>
253

> <i_i_glide_lignum>
251

> <r_i_docking_score>
-6.65378

> <r_i_glide_gscore>
-6.65378

> <r_i_glide_lipo>
-0.668251

> <r_i_glide_hbond>
-1.06155

> <r_i_glide_metal>
0

> <r_i_glide_eburp>
-1.94529

> <r_i_glide_evdw>
-25.0547

> <r_i_glide_ecoul>
-13.2383

> <r_i_glide_erotb>
0.670831

> <r_i_glide_esite>
-0.321316

> <r_i_glide_emodel>
-56.58

> <r_i_glide_energy>
-38.2929

> <r_i_glide_einternal>
4.55363

> <i_i_glide_confnum>
5

> <i_i_glide_posenum>
361

$$$$
C00822
                    3D
 Structure written by MMmdl.
 23 23  0  0  1  0            999 V2000
    1.7008    0.6038    2.5814 C   0  0  0  0  0  0
    2.9938    0.1469    3.2949 C   0  0  0  0  0  0
    1.5125    2.0592    2.4084 C   0  0  0  0  0  0
    0.8861   -0.2317    2.1911 O   0  0  0  0  0  0
    3.9112    1.2100    3.7466 C   0  0  0  0  0  0
    3.2144   -1.0517    3.4643 O   0  0  0  0  0  0
    2.4202    2.9605    2.8483 C   0  0  0  0  0  0
    3.6269    2.5099    3.5327 C   0  0  0  0  0  0
    2.1829    4.4502    2.6450 C   0  0  0  0  0  0
    0.7359    4.7963    2.2188 C   0  0  1  0  0  0
   -0.3108    4.0892    3.0933 C   0  0  0  0  0  0
   -1.4989    4.1000    2.6994 O   0  0  0  0  0  0
    0.6170    2.3868    1.9003 H   0  0  0  0  0  0
    4.8189    0.9204    4.2554 H   0  0  0  0  0  0
    4.3309    3.2507    3.8828 H   0  0  0  0  0  0
    2.4502    4.9912    3.5546 H   0  0  0  0  0  0
    2.8799    4.7967    1.8809 H   0  0  0  0  0  0
    0.5930    4.5064    1.1762 H   0  0  0  0  0  0
   -0.4395    6.4459    1.9890 H   0  0  0  0  0  0
    0.5947    6.5349    3.2674 H   0  0  0  0  0  0
    0.4991    6.2469    2.3039 N   0  3  0  0  0  0
    1.1664    6.7394    1.7285 H   0  0  0  0  0  0
    0.0995    3.5372    4.1370 O   0  5  0  0  0  0
  1  2  1  0  0  0
  1  3  1  0  0  0
  1  4  2  0  0  0
  2  5  1  0  0  0
  2  6  2  0  0  0
  3  7  2  0  0  0
  3 13  1  0  0  0
  5  8  2  0  0  0
  5 14  1  0  0  0
  7  9  1  0  0  0
  7  8  1  0  0  0
  8 15  1  0  0  0
  9 10  1  0  0  0
  9 16  1  0  0  0
  9 17  1  0  0  0
 10 11  1  0  0  0
 10 18  1  0  0  0
 10 21  1  0  0  0
 11 12  2  0  0  0
 11 23  1  0  0  0
 19 21  1  0  0  0
 20 21  1  0  0  0
 21 22  1  0  0  0
M  CHG  2  21   1  23  -1
M  END
> <i_ionizer_Ion_state_n>
3

> <i_ionizer_Tot_Q>
0

> <s_ionizer_Ion_centers>
21_23

> <s_ionizer_Ion_types>
N5_OM

> <s_ionizer_Ion_ctrs_in>
12_13

> <r_ionizer_Ionization_penalty>
0.000779521

> <r_ionizer_Ionization_penalty_charging>
0.000779521

> <r_ionizer_Ionization_penalty_neutral>
0

> <s_st_Chirality_1>
10_S_21_11_9_18

> <i_mmod_Serial_Number-OPLS-2005>
342

> <i_i_glide_lignum>
339

> <r_i_docking_score>
-6.64171

> <r_i_glide_gscore>
-6.64171

> <r_i_glide_lipo>
-0.465729

> <r_i_glide_hbond>
-1.4

> <r_i_glide_metal>
0

> <r_i_glide_eburp>
-2.70927

> <r_i_glide_evdw>
-17.8738

> <r_i_glide_ecoul>
-7.05968

> <r_i_glide_erotb>
0.486014

> <r_i_glide_esite>
-0.416851

> <r_i_glide_emodel>
-48.9487

> <r_i_glide_energy>
-24.9335

> <r_i_glide_einternal>
3.82986

> <i_i_glide_confnum>
1

> <i_i_glide_posenum>
552

$$$$
C05596
                    3D
 Structure written by MMmdl.
 25 25  0  0  1  0            999 V2000
    3.9874    2.8181    2.1919 C   0  0  0  0  0  0
    4.2360    4.2393    1.7149 C   0  0  0  0  0  0
    3.5935    1.8212    1.2739 C   0  0  0  0  0  0
    4.1447    2.4873    3.5550 C   0  0  0  0  0  0
    2.9174    4.9990    1.5580 C   0  0  0  0  0  0
    3.3624    0.5036    1.7148 C   0  0  0  0  0  0
    3.9139    1.1696    3.9956 C   0  0  0  0  0  0
    1.9172    4.6336    2.3742 N   0  0  0  0  0  0
    2.8193    5.8874    0.7121 O   0  0  0  0  0  0
    3.5226    0.1768    3.0755 C   0  0  0  0  0  0
    0.5532    5.1488    2.3419 C   0  0  0  0  0  0
    3.2984   -1.1006    3.4996 O   0  0  0  0  0  0
   -0.3769    4.2031    3.0988 C   0  0  0  0  0  0
   -1.5558    4.1194    2.6888 O   0  0  0  0  0  0
    4.8769    4.7579    2.4292 H   0  0  0  0  0  0
    4.7703    4.2311    0.7638 H   0  0  0  0  0  0
    3.4711    2.0648    0.2285 H   0  0  0  0  0  0
    4.4455    3.2426    4.2664 H   0  0  0  0  0  0
    3.0628   -0.2554    1.0070 H   0  0  0  0  0  0
    4.0387    0.9259    5.0405 H   0  0  0  0  0  0
    2.0951    3.9018    3.0466 H   0  0  0  0  0  0
    0.5336    6.1274    2.8219 H   0  0  0  0  0  0
    0.1883    5.2882    1.3228 H   0  0  0  0  0  0
    3.6481   -1.2729    4.3601 H   0  0  0  0  0  0
    0.1012    3.5868    4.0759 O   0  5  0  0  0  0
  1  2  1  0  0  0
  1  3  1  0  0  0
  1  4  2  0  0  0
  2  5  1  0  0  0
  2 15  1  0  0  0
  2 16  1  0  0  0
  3  6  2  0  0  0
  3 17  1  0  0  0
  4  7  1  0  0  0
  4 18  1  0  0  0
  5  8  1  0  0  0
  5  9  2  0  0  0
  6 10  1  0  0  0
  6 19  1  0  0  0
  7 10  2  0  0  0
  7 20  1  0  0  0
  8 11  1  0  0  0
  8 21  1  0  0  0
 10 12  1  0  0  0
 11 13  1  0  0  0
 11 22  1  0  0  0
 11 23  1  0  0  0
 12 24  1  0  0  0
 13 14  2  0  0  0
 13 25  1  0  0  0
M  CHG  1  25  -1
M  END
> <i_ionizer_Ion_state_n>
2

> <i_ionizer_Tot_Q>
-1

> <s_ionizer_Ion_centers>
25

> <s_ionizer_Ion_types>
OM

> <s_ionizer_Ion_ctrs_in>
14

> <r_ionizer_Ionization_penalty>
0.00118438

> <r_ionizer_Ionization_penalty_charging>
0.00059219

> <r_ionizer_Ionization_penalty_neutral>
0.00059219

> <i_mmod_Serial_Number-OPLS-2005>
758

> <i_i_glide_lignum>
749

> <r_i_docking_score>
-6.64022

> <r_i_glide_gscore>
-6.64022

> <r_i_glide_lipo>
-0.655945

> <r_i_glide_hbond>
-1.85

> <r_i_glide_metal>
0

> <r_i_glide_eburp>
-2.61064

> <r_i_glide_evdw>
-21.5099

> <r_i_glide_ecoul>
-10.3677

> <r_i_glide_erotb>
1.7455

> <r_i_glide_esite>
-0.511584

> <r_i_glide_emodel>
-62.1507

> <r_i_glide_energy>
-31.8776

> <r_i_glide_einternal>
4.74025

> <i_i_glide_confnum>
6

> <i_i_glide_posenum>
783

$$$$
C00455
                    3D
 Structure written by MMmdl.
 36 37  0  0  1  0            999 V2000
    4.0791    4.0434    2.3849 C   0  0  2  0  0  0
    2.9262    4.8590    1.8818 N   0  3  0  0  0  0
    4.2209    2.9245    1.5577 O   0  0  0  0  0  0
    3.7837    3.5455    3.8051 C   0  0  1  0  0  0
    1.5996    4.5641    2.2990 C   0  0  0  0  0  0
    3.0969    5.9364    0.9668 C   0  0  0  0  0  0
    4.1138    1.7192    2.3134 C   0  0  1  0  0  0
    3.3117    2.1218    3.5527 C   0  0  1  0  0  0
    4.9478    3.5907    4.6076 O   0  0  0  0  0  0
    0.4902    5.3082    1.8421 C   0  0  0  0  0  0
    1.9978    6.6756    0.4940 C   0  0  0  0  0  0
    3.4871    0.6264    1.4327 C   0  0  0  0  0  0
    3.5285    1.2852    4.6707 O   0  0  0  0  0  0
    0.6981    6.3620    0.9263 C   0  0  0  0  0  0
   -0.8917    4.9368    2.2983 C   0  0  0  0  0  0
    2.1138    0.8904    1.2040 O   0  0  0  0  0  0
   -1.8912    5.6921    1.8356 N   0  0  0  0  0  0
   -1.0742    4.0226    3.0990 O   0  0  0  0  0  0
    0.9762    0.1336    2.3617 P   0  0  0  0  0  0
   -0.3002   -0.0085    1.5036 O   0  0  0  0  0  0
    1.7059   -1.1817    2.7139 O   0  5  0  0  0  0
    4.9460    4.7018    2.3125 H   0  0  0  0  0  0
    3.0131    4.1485    4.2881 H   0  0  0  0  0  0
    1.4725    3.7394    2.9860 H   0  0  0  0  0  0
    4.0972    6.1725    0.6363 H   0  0  0  0  0  0
    5.1282    1.4349    2.5985 H   0  0  0  0  0  0
    2.2458    2.1299    3.3215 H   0  0  0  0  0  0
    5.5800    3.0001    4.2221 H   0  0  0  0  0  0
    2.1537    7.4837   -0.2063 H   0  0  0  0  0  0
    4.0477    0.5051    0.5054 H   0  0  0  0  0  0
    3.5388   -0.3314    1.9502 H   0  0  0  0  0  0
    3.3114    0.3964    4.3977 H   0  0  0  0  0  0
   -0.1335    6.9345    0.5407 H   0  0  0  0  0  0
   -2.8373    5.4975    2.1295 H   0  0  0  0  0  0
   -1.7000    6.4547    1.2029 H   0  0  0  0  0  0
    0.9209    1.1986    3.4776 O   0  5  0  0  0  0
  1  2  1  0  0  0
  1  3  1  0  0  0
  1  4  1  0  0  0
  1 22  1  0  0  0
  2  5  1  0  0  0
  2  6  2  0  0  0
  3  7  1  0  0  0
  4  8  1  0  0  0
  4  9  1  0  0  0
  4 23  1  0  0  0
  5 10  2  0  0  0
  5 24  1  0  0  0
  6 11  1  0  0  0
  6 25  1  0  0  0
  7 12  1  0  0  0
  7  8  1  0  0  0
  7 26  1  0  0  0
  8 13  1  0  0  0
  8 27  1  0  0  0
  9 28  1  0  0  0
 10 14  1  0  0  0
 10 15  1  0  0  0
 11 14  2  0  0  0
 11 29  1  0  0  0
 12 16  1  0  0  0
 12 30  1  0  0  0
 12 31  1  0  0  0
 13 32  1  0  0  0
 14 33  1  0  0  0
 15 17  1  0  0  0
 15 18  2  0  0  0
 16 19  1  0  0  0
 17 34  1  0  0  0
 17 35  1  0  0  0
 19 20  2  0  0  0
 19 21  1  0  0  0
 19 36  1  0  0  0
M  CHG  3   2   1  21  -1  36  -1
M  END
> <i_ionizer_Ion_state_n>
1

> <i_ionizer_Tot_Q>
-1

> <s_ionizer_Ion_centers>
36

> <s_ionizer_Ion_types>
OM

> <s_ionizer_Ion_ctrs_in>
20

> <r_ionizer_Ionization_penalty>
7.45891e-06

> <r_ionizer_Ionization_penalty_charging>
7.45891e-06

> <r_ionizer_Ionization_penalty_neutral>
0

> <s_st_Chirality_1>
1_R_3_2_4_22

> <s_st_Chirality_2>
4_R_9_1_8_23

> <s_st_Chirality_3>
7_R_3_8_12_26

> <s_st_Chirality_4>
8_R_13_4_7_27

> <i_mmod_Serial_Number-OPLS-2005>
245

> <i_i_glide_lignum>
243

> <r_i_docking_score>
-6.63649

> <r_i_glide_gscore>
-6.63649

> <r_i_glide_lipo>
-0.842625

> <r_i_glide_hbond>
-1.11754

> <r_i_glide_metal>
0

> <r_i_glide_eburp>
-1.26351

> <r_i_glide_evdw>
-29.5498

> <r_i_glide_ecoul>
-10.8107

> <r_i_glide_erotb>
0.581899

> <r_i_glide_esite>
-0.549661

> <r_i_glide_emodel>
-75.7514

> <r_i_glide_energy>
-40.3605

> <r_i_glide_einternal>
8.24072

> <i_i_glide_confnum>
8

> <i_i_glide_posenum>
976

$$$$
C11431
                    3D
 Structure written by MMmdl.
 25 28  0  0  1  0            999 V2000
    3.8325    3.4572    1.3331 C   0  0  0  0  0  0
    4.1301    2.1731    1.8130 C   0  0  0  0  0  0
    1.9777    2.0961    2.9952 C   0  0  0  0  0  0
    3.2158    1.4907    2.6369 C   0  0  0  0  0  0
    3.5706    0.1245    3.1500 C   0  0  1  0  0  0
    2.5682   -0.6218    3.9785 C   0  0  1  0  0  0
    1.3068    0.0804    4.3014 C   0  0  0  0  0  0
    1.0443    1.3230    3.8588 C   0  0  0  0  0  0
    2.6152    4.0734    1.6760 C   0  0  0  0  0  0
    1.6764    3.4026    2.5084 C   0  0  0  0  0  0
    0.4651    4.0720    2.8211 C   0  0  0  0  0  0
    0.1997    5.3619    2.3228 C   0  0  0  0  0  0
    1.1377    6.0103    1.5020 C   0  0  0  0  0  0
    2.3441    5.3656    1.1795 C   0  0  0  0  0  0
    2.7612   -0.9189    2.5875 O   0  0  0  0  0  0
    4.5453    3.9669    0.7011 H   0  0  0  0  0  0
    5.0687    1.7097    1.5459 H   0  0  0  0  0  0
    4.6340   -0.0955    3.2239 H   0  0  0  0  0  0
    2.8998   -1.3900    4.6740 H   0  0  0  0  0  0
    0.5842   -0.4475    4.9061 H   0  0  0  0  0  0
    0.0997    1.7572    4.1393 H   0  0  0  0  0  0
   -0.2917    3.6272    3.4451 H   0  0  0  0  0  0
   -0.7283    5.8549    2.5724 H   0  0  0  0  0  0
    0.9326    6.9997    1.1205 H   0  0  0  0  0  0
    3.0615    5.8693    0.5478 H   0  0  0  0  0  0
  1  9  1  0  0  0
  1  2  2  0  0  0
  1 16  1  0  0  0
  2  4  1  0  0  0
  2 17  1  0  0  0
  3  8  1  0  0  0
  3 10  1  0  0  0
  3  4  2  0  0  0
  4  5  1  0  0  0
  5  6  1  0  0  0
  5 15  1  0  0  0
  5 18  1  0  0  0
  6  7  1  0  0  0
  6 15  1  0  0  0
  6 19  1  0  0  0
  7  8  2  0  0  0
  7 20  1  0  0  0
  8 21  1  0  0  0
  9 10  2  0  0  0
  9 14  1  0  0  0
 10 11  1  0  0  0
 11 12  2  0  0  0
 11 22  1  0  0  0
 12 13  1  0  0  0
 12 23  1  0  0  0
 13 14  2  0  0  0
 13 24  1  0  0  0
 14 25  1  0  0  0
M  END
> <i_ionizer_Ion_state_n>
0

> <i_ionizer_Tot_Q>
0

> <s_ionizer_Ion_centers>


> <s_ionizer_Ion_types>


> <s_ionizer_Ion_ctrs_in>


> <r_ionizer_Ionization_penalty>
0

> <r_ionizer_Ionization_penalty_charging>
0

> <r_ionizer_Ionization_penalty_neutral>
0

> <s_st_Chirality_1>
5_S_15_6_4_18

> <s_st_Chirality_2>
6_R_15_5_7_19

> <s_st_EZ_1>
6_7_8_3_Z

> <i_mmod_Serial_Number-OPLS-2005>
937

> <i_i_glide_lignum>
920

> <r_i_docking_score>
-6.63212

> <r_i_glide_gscore>
-6.63212

> <r_i_glide_lipo>
-1.2958

> <r_i_glide_hbond>
0

> <r_i_glide_metal>
0

> <r_i_glide_eburp>
-2.3164

> <r_i_glide_evdw>
-25.0836

> <r_i_glide_ecoul>
-0.690555

> <r_i_glide_erotb>
0

> <r_i_glide_esite>
-0.944171

> <r_i_glide_emodel>
-32.5893

> <r_i_glide_energy>
-25.7742

> <r_i_glide_einternal>
0

> <i_i_glide_confnum>
1

> <i_i_glide_posenum>
966

$$$$
C09884
                    3D
 Structure written by MMmdl.
 25 26  0  0  1  0            999 V2000
    3.0930    1.2890    3.3529 C   0  0  1  0  0  0
    2.0462    0.1788    3.0503 C   0  0  0  0  0  0
    4.0523    0.1325    3.6804 C   0  0  0  0  0  0
    3.5577    2.0738    2.1172 C   0  0  0  0  0  0
    3.3004   -0.5997    2.5543 C   0  0  2  0  0  0
    0.9360    0.4790    2.0351 C   0  0  0  0  0  0
    1.2998   -0.4093    4.2583 C   0  0  0  0  0  0
    3.9924    1.2357    0.9686 C   0  0  0  0  0  0
    3.5942    3.4158    2.0526 C   0  0  0  0  0  0
    3.8150   -0.2838    1.1377 C   0  0  0  0  0  0
    4.4627    1.6806   -0.0779 O   0  0  0  0  0  0
    2.8468    1.9254    4.2035 H   0  0  0  0  0  0
    3.9185   -0.3001    4.6716 H   0  0  0  0  0  0
    5.1047    0.3341    3.4772 H   0  0  0  0  0  0
    3.2200   -1.6702    2.7446 H   0  0  0  0  0  0
    0.3877   -0.4259    1.7720 H   0  0  0  0  0  0
    1.3144    0.9017    1.1060 H   0  0  0  0  0  0
    0.2162    1.1917    2.4383 H   0  0  0  0  0  0
    0.5695    0.2982    4.6517 H   0  0  0  0  0  0
    0.7595   -1.3156    3.9835 H   0  0  0  0  0  0
    1.9610   -0.6723    5.0824 H   0  0  0  0  0  0
    3.9324    3.9366    1.1681 H   0  0  0  0  0  0
    3.2820    4.0174    2.8935 H   0  0  0  0  0  0
    3.1210   -0.6494    0.3808 H   0  0  0  0  0  0
    4.7727   -0.7723    0.9579 H   0  0  0  0  0  0
  1  2  1  0  0  0
  1  3  1  0  0  0
  1  4  1  0  0  0
  1 12  1  0  0  0
  2  5  1  0  0  0
  2  6  1  0  0  0
  2  7  1  0  0  0
  3  5  1  0  0  0
  3 13  1  0  0  0
  3 14  1  0  0  0
  4  8  1  0  0  0
  4  9  2  0  0  0
  5 10  1  0  0  0
  5 15  1  0  0  0
  6 16  1  0  0  0
  6 17  1  0  0  0
  6 18  1  0  0  0
  7 19  1  0  0  0
  7 20  1  0  0  0
  7 21  1  0  0  0
  8 11  2  0  0  0
  8 10  1  0  0  0
  9 22  1  0  0  0
  9 23  1  0  0  0
 10 24  1  0  0  0
 10 25  1  0  0  0
M  END
> <i_ionizer_Ion_state_n>
0

> <i_ionizer_Tot_Q>
0

> <s_ionizer_Ion_centers>


> <s_ionizer_Ion_types>


> <s_ionizer_Ion_ctrs_in>


> <r_ionizer_Ionization_penalty>
0

> <r_ionizer_Ionization_penalty_charging>
0

> <r_ionizer_Ionization_penalty_neutral>
0

> <s_st_Chirality_1>
1_R_4_2_3_12

> <s_st_Chirality_2>
5_R_2_10_3_15

> <i_mmod_Serial_Number-OPLS-2005>
922

> <i_i_glide_lignum>
910

> <r_i_docking_score>
-6.62232

> <r_i_glide_gscore>
-6.62232

> <r_i_glide_lipo>
-0.881217

> <r_i_glide_hbond>
-0.204594

> <r_i_glide_metal>
0

> <r_i_glide_eburp>
-2.5

> <r_i_glide_evdw>
-23.5556

> <r_i_glide_ecoul>
-1.7993

> <r_i_glide_erotb>
0

> <r_i_glide_esite>
-0.972133

> <r_i_glide_emodel>
-31.8428

> <r_i_glide_energy>
-25.3549

> <r_i_glide_einternal>
0

> <i_i_glide_confnum>
1

> <i_i_glide_posenum>
875

$$$$
C05176
                    3D
 Structure written by MMmdl.
 44 46  0  0  1  0            999 V2000
    2.6339    2.5215    2.2540 C   0  0  0  0  0  0
    3.1919    1.1136    2.4759 C   0  0  2  0  0  0
    1.3154    2.8446    2.6323 C   0  0  0  0  0  0
    3.4313    3.5051    1.6347 C   0  0  0  0  0  0
    3.1433    0.3288    1.1456 C   0  0  0  0  0  0
    0.7911    4.1293    2.3824 C   0  0  0  0  0  0
    0.5020    1.8002    3.3562 C   0  0  0  0  0  0
    2.9115    4.7900    1.3860 C   0  0  0  0  0  0
    4.5101    0.0537    0.5440 C   0  0  0  0  0  0
    1.4219    1.0203    4.2997 C   0  0  0  0  0  0
    3.4719   -0.3048    4.5030 C   0  0  0  0  0  0
    1.5879    5.1177    1.7517 C   0  0  0  0  0  0
    3.6992    5.7250    0.7803 O   0  0  0  0  0  0
    5.4681    1.0857    0.4509 C   0  0  0  0  0  0
    4.8257   -1.2369    0.0695 C   0  0  0  0  0  0
    1.1528    6.3970    1.4721 O   0  0  0  0  0  0
    6.7296    0.8295   -0.1204 C   0  0  0  0  0  0
    6.0877   -1.4927   -0.5012 C   0  0  0  0  0  0
   -0.1712    6.7514    1.8438 C   0  0  0  0  0  0
    7.0401   -0.4588   -0.5975 C   0  0  0  0  0  0
    8.2629   -0.7021   -1.1513 O   0  0  0  0  0  0
    4.2389    1.2524    2.7525 H   0  0  0  0  0  0
    4.4435    3.2725    1.3367 H   0  0  0  0  0  0
    2.6133   -0.6142    1.2880 H   0  0  0  0  0  0
    2.5652    0.8864    0.4072 H   0  0  0  0  0  0
   -0.2218    4.3390    2.6908 H   0  0  0  0  0  0
   -0.3001    2.2747    3.9228 H   0  0  0  0  0  0
    0.0351    1.1354    2.6284 H   0  0  0  0  0  0
    0.8431    0.2815    4.8554 H   0  0  0  0  0  0
    1.8502    1.7039    5.0351 H   0  0  0  0  0  0
    2.9488   -0.9612    5.1992 H   0  0  0  0  0  0
    4.2058   -0.9105    3.9718 H   0  0  0  0  0  0
    4.0092    0.4471    5.0827 H   0  0  0  0  0  0
    4.5862    5.4186    0.6636 H   0  0  0  0  0  0
    5.2407    2.0772    0.8142 H   0  0  0  0  0  0
    4.0997   -2.0340    0.1385 H   0  0  0  0  0  0
    7.4594    1.6229   -0.1912 H   0  0  0  0  0  0
    6.3201   -2.4834   -0.8637 H   0  0  0  0  0  0
   -0.3626    7.7837    1.5512 H   0  0  0  0  0  0
   -0.9084    6.1245    1.3404 H   0  0  0  0  0  0
   -0.3142    6.6833    2.9230 H   0  0  0  0  0  0
    8.3757   -1.5979   -1.4300 H   0  0  0  0  0  0
    2.5163    0.3321    3.5661 N   0  3  2  0  0  0
    2.0627   -0.4289    3.0811 H   0  0  0  0  0  0
  1  2  1  0  0  0
  1  3  1  0  0  0
  1  4  2  0  0  0
  2  5  1  0  0  0
  2 22  1  0  0  0
  2 43  1  0  0  0
  3  6  2  0  0  0
  3  7  1  0  0  0
  4  8  1  0  0  0
  4 23  1  0  0  0
  5  9  1  0  0  0
  5 24  1  0  0  0
  5 25  1  0  0  0
  6 12  1  0  0  0
  6 26  1  0  0  0
  7 10  1  0  0  0
  7 27  1  0  0  0
  7 28  1  0  0  0
  8 13  1  0  0  0
  8 12  2  0  0  0
  9 14  2  0  0  0
  9 15  1  0  0  0
 10 29  1  0  0  0
 10 30  1  0  0  0
 10 43  1  0  0  0
 11 31  1  0  0  0
 11 32  1  0  0  0
 11 33  1  0  0  0
 11 43  1  0  0  0
 12 16  1  0  0  0
 13 34  1  0  0  0
 14 17  1  0  0  0
 14 35  1  0  0  0
 15 18  2  0  0  0
 15 36  1  0  0  0
 16 19  1  0  0  0
 17 20  2  0  0  0
 17 37  1  0  0  0
 18 20  1  0  0  0
 18 38  1  0  0  0
 19 39  1  0  0  0
 19 40  1  0  0  0
 19 41  1  0  0  0
 20 21  1  0  0  0
 21 42  1  0  0  0
 43 44  1  0  0  0
M  CHG  1  43   1
M  END
> <i_ionizer_Ion_state_n>
1

> <i_ionizer_Tot_Q>
1

> <s_ionizer_Ion_centers>
43

> <s_ionizer_Ion_types>
N5

> <s_ionizer_Ion_ctrs_in>
6

> <r_ionizer_Ionization_penalty>
0.00177657

> <r_ionizer_Ionization_penalty_charging>
0.00059219

> <r_ionizer_Ionization_penalty_neutral>
0.00118438

> <s_st_Chirality_1>
2_S_43_1_5_22

> <s_st_Chirality_2>
43_S_2_10_11_44

> <i_mmod_Serial_Number-OPLS-2005>
640

> <i_i_glide_lignum>
633

> <r_i_docking_score>
-6.61691

> <r_i_glide_gscore>
-6.61691

> <r_i_glide_lipo>
-1.74432

> <r_i_glide_hbond>
-0.372948

> <r_i_glide_metal>
0

> <r_i_glide_eburp>
-1.51227

> <r_i_glide_evdw>
-29.1358

> <r_i_glide_ecoul>
-1.65809

> <r_i_glide_erotb>
0.465631

> <r_i_glide_esite>
-0.95634

> <r_i_glide_emodel>
-42.0577

> <r_i_glide_energy>
-30.7939

> <r_i_glide_einternal>
3.76689

> <i_i_glide_confnum>
3

> <i_i_glide_posenum>
746

$$$$
C01762
                    3D
 Structure written by MMmdl.
 33 35  0  0  1  0            999 V2000
    1.3174    4.0660    2.0216 C   0  0  0  0  0  0
    2.1374    2.9891    2.2308 N   0  0  0  0  0  0
    2.0178    5.0722    1.4228 C   0  0  0  0  0  0
   -0.0508    4.2385    2.3213 N   0  0  0  0  0  0
    1.8383    1.6627    2.8467 C   0  0  2  0  0  0
    3.3293    3.4319    1.7253 C   0  0  0  0  0  0
    1.3393    6.3578    1.0872 C   0  0  0  0  0  0
   -0.7007    5.3954    2.0285 C   0  0  0  0  0  0
    2.6500    1.5373    4.0189 O   0  0  0  0  0  0
    2.3328    0.5592    1.9191 C   0  0  1  0  0  0
    0.0255    6.3885    1.4308 N   0  0  0  0  0  0
    1.9356    7.2874    0.5489 O   0  0  0  0  0  0
   -1.8908    5.5431    2.2896 O   0  0  0  0  0  0
    3.2521    0.2702    4.0979 C   0  0  1  0  0  0
    2.7827   -0.5266    2.8713 C   0  0  1  0  0  0
    1.2992    0.1010    1.0694 O   0  0  0  0  0  0
    4.7790    0.4439    4.1047 C   0  0  0  0  0  0
    1.7540   -1.4496    3.1770 O   0  0  0  0  0  0
    5.2641    0.4991    5.4300 O   0  0  0  0  0  0
   -0.5532    3.4807    2.7617 H   0  0  0  0  0  0
    0.7572    1.6654    2.9946 H   0  0  0  0  0  0
    4.2150    2.8210    1.7313 H   0  0  0  0  0  0
    3.1581    0.9061    1.2954 H   0  0  0  0  0  0
   -0.4728    7.2409    1.2209 H   0  0  0  0  0  0
    2.9215   -0.2569    4.9950 H   0  0  0  0  0  0
    3.6301   -1.0608    2.4390 H   0  0  0  0  0  0
    1.6970   -0.4327    0.3967 H   0  0  0  0  0  0
    5.2679   -0.3715    3.5708 H   0  0  0  0  0  0
    5.0512    1.3703    3.5981 H   0  0  0  0  0  0
    1.9921   -1.9019    3.9737 H   0  0  0  0  0  0
    5.1491   -0.3501    5.8297 H   0  0  0  0  0  0
    3.3137    4.6720    1.2290 N   0  3  0  0  0  0
    4.0771    5.1900    0.8117 H   0  0  0  0  0  0
  1  2  1  0  0  0
  1  3  2  0  0  0
  1  4  1  0  0  0
  2  5  1  0  0  0
  2  6  1  0  0  0
  3  7  1  0  0  0
  3 32  1  0  0  0
  4  8  1  0  0  0
  4 20  1  0  0  0
  5  9  1  0  0  0
  5 10  1  0  0  0
  5 21  1  0  0  0
  6 22  1  0  0  0
  6 32  2  0  0  0
  7 11  1  0  0  0
  7 12  2  0  0  0
  8 13  2  0  0  0
  8 11  1  0  0  0
  9 14  1  0  0  0
 10 15  1  0  0  0
 10 16  1  0  0  0
 10 23  1  0  0  0
 11 24  1  0  0  0
 14 17  1  0  0  0
 14 15  1  0  0  0
 14 25  1  0  0  0
 15 18  1  0  0  0
 15 26  1  0  0  0
 16 27  1  0  0  0
 17 19  1  0  0  0
 17 28  1  0  0  0
 17 29  1  0  0  0
 18 30  1  0  0  0
 19 31  1  0  0  0
 32 33  1  0  0  0
M  CHG  1  32   1
M  END
> <i_ionizer_Ion_state_n>
1

> <i_ionizer_Tot_Q>
1

> <s_ionizer_Ion_centers>
32

> <s_ionizer_Ion_types>
N4

> <s_ionizer_Ion_ctrs_in>
7

> <r_ionizer_Ionization_penalty>
0.41068

> <r_ionizer_Ionization_penalty_charging>
0.41068

> <r_ionizer_Ionization_penalty_neutral>
0

> <s_st_Chirality_1>
5_R_9_2_10_21

> <s_st_Chirality_2>
10_R_16_5_15_23

> <s_st_Chirality_3>
14_R_9_15_17_25

> <s_st_Chirality_4>
15_R_18_10_14_26

> <i_mmod_Serial_Number-OPLS-2005>
457

> <i_i_glide_lignum>
453

> <r_i_docking_score>
-6.61364

> <r_i_glide_gscore>
-6.61364

> <r_i_glide_lipo>
-0.599894

> <r_i_glide_hbond>
-0.835972

> <r_i_glide_metal>
0

> <r_i_glide_eburp>
-1.62698

> <r_i_glide_evdw>
-27.8691

> <r_i_glide_ecoul>
-10.1332

> <r_i_glide_erotb>
0.509625

> <r_i_glide_esite>
-0.817578

> <r_i_glide_emodel>
-56.8321

> <r_i_glide_energy>
-38.0022

> <r_i_glide_einternal>
4.76329

> <i_i_glide_confnum>
11

> <i_i_glide_posenum>
366

$$$$
C00243
                    3D
 Structure written by MMmdl.
 45 46  0  0  1  0            999 V2000
    1.2971    4.2230    2.1406 C   0  0  1  0  0  0
    2.0747    5.3039    1.3531 C   0  0  2  0  0  0
    2.1509    3.8206    3.2221 O   0  0  0  0  0  0
    0.0137    4.8090    2.7644 C   0  0  1  0  0  0
    1.1929    5.9580    0.4387 O   0  0  0  0  0  0
    3.2255    4.7055    0.5253 C   0  0  0  0  0  0
    2.8946    2.6420    3.0100 C   0  0  2  0  0  0
   -0.7948    5.5829    1.7056 C   0  0  2  0  0  0
   -0.8076    3.7422    3.1970 O   0  0  0  0  0  0
    0.1088    6.6237    1.0132 C   0  0  1  0  0  0
    4.1754    4.1004    1.3775 O   0  0  0  0  0  0
    2.0784    1.4967    2.8924 O   0  0  0  0  0  0
    3.9064    2.4693    4.1604 C   0  0  1  0  0  0
   -1.9303    6.1925    2.2915 O   0  0  0  0  0  0
    0.4993    7.6531    1.8997 O   0  0  0  0  0  0
    2.7753    0.2790    2.5929 C   0  0  1  0  0  0
    4.6819    1.1502    3.9810 C   0  0  2  0  0  0
    4.8036    3.5757    4.1399 O   0  0  0  0  0  0
    3.7130   -0.0291    3.7810 C   0  0  1  0  0  0
    1.7152   -0.8003    2.3148 C   0  0  0  0  0  0
    5.5498    0.9029    5.0855 O   0  0  0  0  0  0
    2.9636   -0.2831    4.9689 O   0  0  0  0  0  0
    0.8953   -1.0422    3.4530 O   0  0  0  0  0  0
    1.0530    3.3876    1.4803 H   0  0  0  0  0  0
    2.4850    6.0277    2.0598 H   0  0  0  0  0  0
    0.2574    5.4542    3.6098 H   0  0  0  0  0  0
    2.8544    3.9247   -0.1382 H   0  0  0  0  0  0
    3.7001    5.4621   -0.1001 H   0  0  0  0  0  0
    3.4094    2.7603    2.0463 H   0  0  0  0  0  0
   -1.1421    4.8954    0.9321 H   0  0  0  0  0  0
   -0.8937    3.1340    2.4779 H   0  0  0  0  0  0
   -0.4282    7.1080    0.1970 H   0  0  0  0  0  0
    4.6887    4.7796    1.7877 H   0  0  0  0  0  0
    3.3645    2.4661    5.1073 H   0  0  0  0  0  0
   -2.2406    6.8711    1.7114 H   0  0  0  0  0  0
    0.6263    8.4424    1.3966 H   0  0  0  0  0  0
    3.3638    0.4265    1.6854 H   0  0  0  0  0  0
    5.3000    1.2349    3.0855 H   0  0  0  0  0  0
    4.3574    4.3300    4.5497 H   0  0  0  0  0  0
    4.2913   -0.9249    3.5514 H   0  0  0  0  0  0
    1.0826   -0.5150    1.4738 H   0  0  0  0  0  0
    2.2052   -1.7329    2.0335 H   0  0  0  0  0  0
    6.1553    0.1870    4.8484 H   0  0  0  0  0  0
    3.4523   -0.9235    5.5044 H   0  0  0  0  0  0
    0.2897   -1.7678    3.2473 H   0  0  0  0  0  0
  1  2  1  0  0  0
  1  3  1  0  0  0
  1  4  1  0  0  0
  1 24  1  0  0  0
  2  5  1  0  0  0
  2  6  1  0  0  0
  2 25  1  0  0  0
  3  7  1  0  0  0
  4  8  1  0  0  0
  4  9  1  0  0  0
  4 26  1  0  0  0
  5 10  1  0  0  0
  6 11  1  0  0  0
  6 27  1  0  0  0
  6 28  1  0  0  0
  7 12  1  0  0  0
  7 13  1  0  0  0
  7 29  1  0  0  0
  8 14  1  0  0  0
  8 10  1  0  0  0
  8 30  1  0  0  0
  9 31  1  0  0  0
 10 15  1  0  0  0
 10 32  1  0  0  0
 11 33  1  0  0  0
 12 16  1  0  0  0
 13 17  1  0  0  0
 13 18  1  0  0  0
 13 34  1  0  0  0
 14 35  1  0  0  0
 15 36  1  0  0  0
 16 19  1  0  0  0
 16 20  1  0  0  0
 16 37  1  0  0  0
 17 21  1  0  0  0
 17 19  1  0  0  0
 17 38  1  0  0  0
 18 39  1  0  0  0
 19 22  1  0  0  0
 19 40  1  0  0  0
 20 23  1  0  0  0
 20 41  1  0  0  0
 20 42  1  0  0  0
 21 43  1  0  0  0
 22 44  1  0  0  0
 23 45  1  0  0  0
M  END
> <i_ionizer_Ion_state_n>
0

> <i_ionizer_Tot_Q>
0

> <s_ionizer_Ion_centers>


> <s_ionizer_Ion_types>


> <s_ionizer_Ion_ctrs_in>


> <r_ionizer_Ionization_penalty>
0

> <r_ionizer_Ionization_penalty_charging>
0

> <r_ionizer_Ionization_penalty_neutral>
0

> <s_st_Chirality_1>
1_R_3_4_2_24

> <s_st_Chirality_2>
2_R_5_1_6_25

> <s_st_Chirality_3>
4_S_9_8_1_26

> <s_st_Chirality_4>
7_S_3_12_13_29

> <s_st_Chirality_5>
8_R_14_10_4_30

> <s_st_Chirality_6>
10_S_5_15_8_32

> <s_st_Chirality_7>
13_R_18_7_17_34

> <s_st_Chirality_8>
16_R_12_19_20_37

> <s_st_Chirality_9>
17_S_21_13_19_38

> <s_st_Chirality_10>
19_S_22_17_16_40

> <i_mmod_Serial_Number-OPLS-2005>
159

> <i_i_glide_lignum>
157

> <r_i_docking_score>
-6.60754

> <r_i_glide_gscore>
-6.60754

> <r_i_glide_lipo>
-0.919694

> <r_i_glide_hbond>
-1.96095

> <r_i_glide_metal>
0

> <r_i_glide_eburp>
-1.19468

> <r_i_glide_evdw>
-21.1054

> <r_i_glide_ecoul>
-14.9826

> <r_i_glide_erotb>
0.739756

> <r_i_glide_esite>
-0.0852819

> <r_i_glide_emodel>
-62.1519

> <r_i_glide_energy>
-36.088

> <r_i_glide_einternal>
7.48795

> <i_i_glide_confnum>
6

> <i_i_glide_posenum>
356

$$$$
C00329
                    3D
 Structure written by MMmdl.
 26 26  0  0  1  0            999 V2000
    4.7041    0.6510    3.4387 C   0  0  2  0  0  0
    3.4920   -0.3016    3.5467 C   0  0  2  0  0  0
    5.2906    0.4759    2.1513 O   0  0  0  0  0  0
    5.7982    0.3360    4.4752 C   0  0  0  0  0  0
    2.5239   -0.0747    2.3708 C   0  0  1  0  0  0
    2.7946   -0.0245    4.7455 O   0  0  0  0  0  0
    4.4696    0.8375    1.0865 C   0  0  2  0  0  0
    5.2875    0.5002    5.7818 O   0  0  0  0  0  0
    3.2831   -0.1483    1.0300 C   0  0  2  0  0  0
    1.5468   -1.1004    2.4025 O   0  0  0  0  0  0
    5.1869    0.7843   -0.1244 O   0  0  0  0  0  0
    4.3690    1.6839    3.5580 H   0  0  0  0  0  0
    3.8374   -1.3369    3.5581 H   0  0  0  0  0  0
    6.1262   -0.7000    4.3871 H   0  0  0  0  0  0
    6.6773    0.9644    4.3282 H   0  0  0  0  0  0
    2.0341    0.8956    2.4746 H   0  0  0  0  0  0
    3.2535   -0.4476    5.4562 H   0  0  0  0  0  0
    4.1396    1.8706    1.2148 H   0  0  0  0  0  0
    4.8988   -0.3156    6.0586 H   0  0  0  0  0  0
    3.6843   -1.1519    0.8765 H   0  0  0  0  0  0
    1.1090   -1.0894    3.2400 H   0  0  0  0  0  0
    4.9968   -0.0449   -0.5382 H   0  0  0  0  0  0
    2.9362    0.1720   -0.9506 H   0  0  0  0  0  0
    1.6541   -0.5021   -0.1605 H   0  0  0  0  0  0
    2.3926    0.1836   -0.0987 N   0  3  0  0  0  0
    1.9979    1.1035    0.0334 H   0  0  0  0  0  0
  1  2  1  0  0  0
  1  3  1  0  0  0
  1  4  1  0  0  0
  1 12  1  0  0  0
  2  5  1  0  0  0
  2  6  1  0  0  0
  2 13  1  0  0  0
  3  7  1  0  0  0
  4  8  1  0  0  0
  4 14  1  0  0  0
  4 15  1  0  0  0
  5  9  1  0  0  0
  5 10  1  0  0  0
  5 16  1  0  0  0
  6 17  1  0  0  0
  7 11  1  0  0  0
  7  9  1  0  0  0
  7 18  1  0  0  0
  8 19  1  0  0  0
  9 20  1  0  0  0
  9 25  1  0  0  0
 10 21  1  0  0  0
 11 22  1  0  0  0
 23 25  1  0  0  0
 24 25  1  0  0  0
 25 26  1  0  0  0
M  CHG  1  25   1
M  END
> <i_ionizer_Ion_state_n>
1

> <i_ionizer_Tot_Q>
1

> <s_ionizer_Ion_centers>
25

> <s_ionizer_Ion_types>
N5

> <s_ionizer_Ion_ctrs_in>
12

> <r_ionizer_Ionization_penalty>
0.000187331

> <r_ionizer_Ionization_penalty_charging>
0.000187331

> <r_ionizer_Ionization_penalty_neutral>
0

> <s_st_Chirality_1>
1_R_3_2_4_12

> <s_st_Chirality_2>
2_S_6_1_5_13

> <s_st_Chirality_3>
5_R_10_2_9_16

> <s_st_Chirality_4>
9_R_25_7_5_20

> <s_st_Chirality_5>
7_R_3_11_9_18

> <i_mmod_Serial_Number-OPLS-2005>
194

> <i_i_glide_lignum>
192

> <r_i_docking_score>
-6.60119

> <r_i_glide_gscore>
-6.60119

> <r_i_glide_lipo>
-0.50437

> <r_i_glide_hbond>
-1.27461

> <r_i_glide_metal>
0

> <r_i_glide_eburp>
-2.42286

> <r_i_glide_evdw>
-14.8102

> <r_i_glide_ecoul>
-14.9429

> <r_i_glide_erotb>
0.554633

> <r_i_glide_esite>
-0.274874

> <r_i_glide_emodel>
-42.023

> <r_i_glide_energy>
-29.753

> <r_i_glide_einternal>
2.88621

> <i_i_glide_confnum>
1

> <i_i_glide_posenum>
39

$$$$
C07112
                    3D
 Structure written by MMmdl.
 19 19  0  0  1  0            999 V2000
    3.5262    0.5209    3.7010 C   0  0  0  0  0  0
    2.6401   -0.1895    4.5413 C   0  0  0  0  0  0
    3.1671    0.7551    2.3559 C   0  0  0  0  0  0
    4.8516    1.0416    4.2360 C   0  0  1  0  0  0
    1.4121   -0.6637    4.0401 C   0  0  0  0  0  0
    1.9390    0.2805    1.8551 C   0  0  0  0  0  0
    4.8655    2.5727    4.3380 C   0  0  0  0  0  0
    5.1717    0.5003    5.5010 O   0  0  0  0  0  0
    1.0615   -0.4295    2.6968 C   0  0  0  0  0  0
    2.8971   -0.3717    5.5743 H   0  0  0  0  0  0
    3.8320    1.3000    1.7017 H   0  0  0  0  0  0
    5.6454    0.7328    3.5545 H   0  0  0  0  0  0
    0.7387   -1.2066    4.6868 H   0  0  0  0  0  0
    1.6701    0.4618    0.8249 H   0  0  0  0  0  0
    4.1040    2.9358    5.0290 H   0  0  0  0  0  0
    5.8327    2.9345    4.6884 H   0  0  0  0  0  0
    4.6763    3.0294    3.3661 H   0  0  0  0  0  0
    5.0522   -0.4361    5.4658 H   0  0  0  0  0  0
    0.1198   -0.7930    2.3126 H   0  0  0  0  0  0
  1  2  1  0  0  0
  1  3  2  0  0  0
  1  4  1  0  0  0
  2  5  2  0  0  0
  2 10  1  0  0  0
  3  6  1  0  0  0
  3 11  1  0  0  0
  4  7  1  0  0  0
  4  8  1  0  0  0
  4 12  1  0  0  0
  5  9  1  0  0  0
  5 13  1  0  0  0
  6  9  2  0  0  0
  6 14  1  0  0  0
  7 15  1  0  0  0
  7 16  1  0  0  0
  7 17  1  0  0  0
  8 18  1  0  0  0
  9 19  1  0  0  0
M  END
> <i_ionizer_Ion_state_n>
0

> <i_ionizer_Tot_Q>
0

> <s_ionizer_Ion_centers>


> <s_ionizer_Ion_types>


> <s_ionizer_Ion_ctrs_in>


> <r_ionizer_Ionization_penalty>
0

> <r_ionizer_Ionization_penalty_charging>
0

> <r_ionizer_Ionization_penalty_neutral>
0

> <s_st_Chirality_1>
4_R_8_1_7_12

> <i_mmod_Serial_Number-OPLS-2005>
897

> <i_i_glide_lignum>
885

> <r_i_docking_score>
-6.58493

> <r_i_glide_gscore>
-6.58493

> <r_i_glide_lipo>
-0.858113

> <r_i_glide_hbond>
-0.45

> <r_i_glide_metal>
0

> <r_i_glide_eburp>
-2.5

> <r_i_glide_evdw>
-18.7593

> <r_i_glide_ecoul>
-4.92179

> <r_i_glide_erotb>
0

> <r_i_glide_esite>
-0.783889

> <r_i_glide_emodel>
-28.9859

> <r_i_glide_energy>
-23.6811

> <r_i_glide_einternal>
1.42054

> <i_i_glide_confnum>
1

> <i_i_glide_posenum>
126

$$$$
C05838
                    3D
 Structure written by MMmdl.
 19 19  0  0  1  0            999 V2000
    2.5369    1.7123    3.3921 C   0  0  0  0  0  0
    3.3409    0.7836    4.1004 C   0  0  0  0  0  0
    1.2845    1.2534    2.7501 C   0  0  0  0  0  0
    2.9783    3.0537    3.2997 C   0  0  0  0  0  0
    4.5493    1.1940    4.6996 C   0  0  0  0  0  0
    2.9673   -0.5265    4.2135 O   0  0  0  0  0  0
    0.0941    1.8811    2.6557 C   0  0  0  0  0  0
    4.1849    3.4617    3.8991 C   0  0  0  0  0  0
    4.9728    2.5314    4.5992 C   0  0  0  0  0  0
   -0.2963    3.2997    3.1460 C   0  0  0  0  0  0
   -1.4325    3.7005    2.8133 O   0  0  0  0  0  0
    1.3348    0.2645    2.3182 H   0  0  0  0  0  0
    2.3867    3.7951    2.7860 H   0  0  0  0  0  0
    5.1584    0.4826    5.2376 H   0  0  0  0  0  0
    3.5649   -1.0395    4.7349 H   0  0  0  0  0  0
   -0.6969    1.3384    2.1602 H   0  0  0  0  0  0
    4.5035    4.4909    3.8226 H   0  0  0  0  0  0
    5.8990    2.8429    5.0590 H   0  0  0  0  0  0
    0.5559    3.8879    3.8462 O   0  5  0  0  0  0
  1  2  2  0  0  0
  1  3  1  0  0  0
  1  4  1  0  0  0
  2  5  1  0  0  0
  2  6  1  0  0  0
  3  7  2  0  0  0
  3 12  1  0  0  0
  4  8  2  0  0  0
  4 13  1  0  0  0
  5  9  2  0  0  0
  5 14  1  0  0  0
  6 15  1  0  0  0
  7 10  1  0  0  0
  7 16  1  0  0  0
  8  9  1  0  0  0
  8 17  1  0  0  0
  9 18  1  0  0  0
 10 11  2  0  0  0
 10 19  1  0  0  0
M  CHG  1  19  -1
M  END
> <i_ionizer_Ion_state_n>
2

> <i_ionizer_Tot_Q>
-1

> <s_ionizer_Ion_centers>
19

> <s_ionizer_Ion_types>
OM

> <s_ionizer_Ion_ctrs_in>
11

> <r_ionizer_Ionization_penalty>
0.00118438

> <r_ionizer_Ionization_penalty_charging>
0.00059219

> <r_ionizer_Ionization_penalty_neutral>
0.00059219

> <s_st_EZ_1>
1_3_7_10_Z

> <i_mmod_Serial_Number-OPLS-2005>
807

> <i_i_glide_lignum>
798

> <r_i_docking_score>
-6.58359

> <r_i_glide_gscore>
-6.58359

> <r_i_glide_lipo>
-0.721346

> <r_i_glide_hbond>
-1.83479

> <r_i_glide_metal>
0

> <r_i_glide_eburp>
-2.9

> <r_i_glide_evdw>
-14.3978

> <r_i_glide_ecoul>
-7.76149

> <r_i_glide_erotb>
1.3043

> <r_i_glide_esite>
-0.503778

> <r_i_glide_emodel>
-53.0942

> <r_i_glide_energy>
-22.1593

> <r_i_glide_einternal>
0.825496

> <i_i_glide_confnum>
8

> <i_i_glide_posenum>
365

$$$$
C00388
                    3D
 Structure written by MMmdl.
 19 19  0  0  1  0            999 V2000
    4.1147    1.8923    3.6359 C   0  0  0  0  0  0
    4.5724    0.7922    4.3193 C   0  0  0  0  0  0
    2.7474    1.8202    3.6315 N   0  0  0  0  0  0
    2.3447    0.7251    4.2811 C   0  0  0  0  0  0
    5.9579    0.3374    4.6457 C   0  0  0  0  0  0
    6.2715    0.4957    6.1418 C   0  0  0  0  0  0
    4.6498    2.7033    3.1619 H   0  0  0  0  0  0
    2.1285    2.4951    3.1985 H   0  0  0  0  0  0
    1.3284    0.4075    4.4356 H   0  0  0  0  0  0
    6.0681   -0.7045    4.3417 H   0  0  0  0  0  0
    6.6646    0.9153    4.0486 H   0  0  0  0  0  0
    6.9438    1.3399    6.3000 H   0  0  0  0  0  0
    5.3590    0.7025    6.7023 H   0  0  0  0  0  0
    7.0929   -0.5777    7.6780 H   0  0  0  0  0  0
    6.2777   -1.5055    6.5883 H   0  0  0  0  0  0
    3.4496    0.0995    4.6998 N   0  3  0  0  0  0
    3.4503   -0.7696    5.2196 H   0  0  0  0  0  0
    6.9000   -0.7169    6.6959 N   0  3  0  0  0  0
    7.7663   -0.9049    6.2112 H   0  0  0  0  0  0
  1  2  2  0  0  0
  1  3  1  0  0  0
  1  7  1  0  0  0
  2  5  1  0  0  0
  2 16  1  0  0  0
  3  4  1  0  0  0
  3  8  1  0  0  0
  4  9  1  0  0  0
  4 16  2  0  0  0
  5  6  1  0  0  0
  5 10  1  0  0  0
  5 11  1  0  0  0
  6 12  1  0  0  0
  6 13  1  0  0  0
  6 18  1  0  0  0
 14 18  1  0  0  0
 15 18  1  0  0  0
 16 17  1  0  0  0
 18 19  1  0  0  0
M  CHG  2  16   1  18   1
M  END
> <i_ionizer_Ion_state_n>
3

> <i_ionizer_Tot_Q>
2

> <s_ionizer_Ion_centers>
16_18

> <s_ionizer_Ion_types>
N4_N5

> <s_ionizer_Ion_ctrs_in>
4_8

> <r_ionizer_Ionization_penalty>
0.410867

> <r_ionizer_Ionization_penalty_charging>
0.410867

> <r_ionizer_Ionization_penalty_neutral>
0

> <i_mmod_Serial_Number-OPLS-2005>
223

> <i_i_glide_lignum>
221

> <r_i_docking_score>
-6.58358

> <r_i_glide_gscore>
-6.58358

> <r_i_glide_lipo>
-0.442626

> <r_i_glide_hbond>
-1.37549

> <r_i_glide_metal>
0

> <r_i_glide_eburp>
-2.5

> <r_i_glide_evdw>
-10.7315

> <r_i_glide_ecoul>
-10.9611

> <r_i_glide_erotb>
0

> <r_i_glide_esite>
-0.310844

> <r_i_glide_emodel>
-38.9499

> <r_i_glide_energy>
-21.6926

> <r_i_glide_einternal>
4.87538

> <i_i_glide_confnum>
1

> <i_i_glide_posenum>
181

$$$$
C00582
                    3D
 Structure written by MMmdl.
 95 98  0  0  1  0            999 V2000
  -10.5152    8.0326   13.8609 N   0  0  0  0  0  0
  -11.2732    7.9574   12.5759 C   0  0  1  0  0  0
  -10.7046    7.2140   14.9519 C   0  0  0  0  0  0
   -9.5140    8.9038   14.2366 C   0  0  0  0  0  0
  -12.1199    9.2190   12.3885 C   0  0  1  0  0  0
  -10.3426    7.9181   11.5305 O   0  0  0  0  0  0
   -9.7786    7.6578   15.9346 C   0  0  0  0  0  0
  -11.5895    6.1838   15.0927 N   0  0  0  0  0  0
   -9.0421    8.7269   15.4425 N   0  0  0  0  0  0
  -11.9897    9.4396   10.8946 C   0  0  1  0  0  0
  -13.4854    9.0577   12.7075 O   0  0  0  0  0  0
  -10.5549    8.9950   10.6145 C   0  0  1  0  0  0
   -9.7969    6.9489   17.1618 C   0  0  0  0  0  0
  -11.4916    5.6141   16.2972 C   0  0  0  0  0  0
  -12.8711    8.5525   10.2160 O   0  0  0  0  0  0
   -9.4902   10.0801   10.8658 C   0  0  0  0  0  0
  -10.6722    5.9267   17.3070 N   0  0  0  0  0  0
   -8.9877    7.2431   18.1878 N   0  0  0  0  0  0
  -14.2025    9.3354    9.3106 P   0  0  0  0  0  0
   -8.2243    9.6717   10.3847 O   0  0  0  0  0  0
  -14.9566    8.1206    8.7200 O   0  0  0  0  0  0
   -6.7921   10.4694   10.8597 P   0  0  0  0  0  0
   -5.6407   10.0972    9.6608 O   0  0  0  0  0  0
   -7.0412   11.9294   10.8280 O   0  0  0  0  0  0
   -4.0756   10.6161    9.2404 P   0  0  0  0  0  0
   -3.9750   10.1930    7.6006 O   0  0  0  0  0  0
   -4.0126   12.0920    9.3361 O   0  0  0  0  0  0
   -2.8759   10.5893    6.8018 C   0  0  0  0  0  0
   -3.1951   10.4786    5.2878 C   0  0  0  0  0  0
   -3.3243    8.9658    4.8880 C   0  0  2  0  0  0
   -4.4860   11.2685    4.9694 C   0  0  0  0  0  0
   -2.0345   11.1325    4.5061 C   0  0  0  0  0  0
   -2.0041    8.2834    4.4773 C   0  0  0  0  0  0
   -4.3070    8.7381    3.8897 O   0  0  0  0  0  0
   -1.7259    8.2224    3.1627 N   0  0  0  0  0  0
   -1.2598    7.8173    5.3405 O   0  0  0  0  0  0
   -0.5863    7.5339    2.5717 C   0  0  0  0  0  0
   -1.0374    6.3009    1.7666 C   0  0  0  0  0  0
   -0.6784    4.9784    2.4494 C   0  0  0  0  0  0
    0.6094    4.8128    2.7833 N   0  0  0  0  0  0
   -1.5421    4.1272    2.6628 O   0  0  0  0  0  0
    1.1082    3.7266    3.6154 C   0  0  0  0  0  0
    1.0187    2.3888    2.8727 C   0  0  0  0  0  0
    1.4324    0.9987    3.9665 S   0  0  0  0  0  0
    1.5549   -0.3148    2.7269 C   0  0  0  0  0  0
    2.9473   -0.9150    2.5406 C   0  0  0  0  0  0
    0.5951   -0.7128    2.0680 O   0  0  0  0  0  0
    3.8245   -0.0366    1.6662 C   0  0  0  0  0  0
    3.7642    1.3688    1.7826 C   0  0  0  0  0  0
    4.7044   -0.6215    0.7304 C   0  0  0  0  0  0
    4.5794    2.1821    0.9715 C   0  0  0  0  0  0
    5.5191    0.1925   -0.0805 C   0  0  0  0  0  0
    5.4569    1.5943    0.0399 C   0  0  0  0  0  0
  -11.8455    7.0294   12.6091 H   0  0  0  0  0  0
   -9.1376    9.6799   13.5877 H   0  0  0  0  0  0
  -11.6842   10.0506   12.9442 H   0  0  0  0  0  0
  -12.1603   10.4719   10.6003 H   0  0  0  0  0  0
  -13.5168    8.7335   13.5980 H   0  0  0  0  0  0
  -10.4482    8.6201    9.5959 H   0  0  0  0  0  0
  -12.1656    4.7901   16.4793 H   0  0  0  0  0  0
   -9.7704   11.0385   10.4306 H   0  0  0  0  0  0
   -9.4007   10.2343   11.9412 H   0  0  0  0  0  0
   -9.0427    6.7079   19.0416 H   0  0  0  0  0  0
   -8.3310    8.0056   18.1016 H   0  0  0  0  0  0
   -2.5737   11.6081    7.0489 H   0  0  0  0  0  0
   -2.0416    9.9547    7.0940 H   0  0  0  0  0  0
   -3.6931    8.4226    5.7592 H   0  0  0  0  0  0
   -4.6723   11.3349    3.8975 H   0  0  0  0  0  0
   -5.3575   10.8017    5.4172 H   0  0  0  0  0  0
   -4.4366   12.2937    5.3360 H   0  0  0  0  0  0
   -2.2079   11.1198    3.4301 H   0  0  0  0  0  0
   -1.9000   12.1751    4.7966 H   0  0  0  0  0  0
   -1.0900   10.6211    4.6943 H   0  0  0  0  0  0
   -4.1790    9.3471    3.1685 H   0  0  0  0  0  0
   -2.3556    8.6961    2.5227 H   0  0  0  0  0  0
   -0.0741    8.2423    1.9193 H   0  0  0  0  0  0
    0.1263    7.2543    3.3499 H   0  0  0  0  0  0
   -2.1169    6.3265    1.6136 H   0  0  0  0  0  0
   -0.5798    6.3281    0.7762 H   0  0  0  0  0  0
    1.2825    5.4838    2.4421 H   0  0  0  0  0  0
    2.1431    3.9318    3.8942 H   0  0  0  0  0  0
    0.5276    3.6808    4.5383 H   0  0  0  0  0  0
    0.0100    2.2458    2.4828 H   0  0  0  0  0  0
    1.7015    2.3870    2.0219 H   0  0  0  0  0  0
    3.4184   -1.0459    3.5156 H   0  0  0  0  0  0
    2.8600   -1.9097    2.1020 H   0  0  0  0  0  0
    3.0951    1.8267    2.4965 H   0  0  0  0  0  0
    4.7584   -1.6963    0.6349 H   0  0  0  0  0  0
    4.5318    3.2571    1.0646 H   0  0  0  0  0  0
    6.1923   -0.2587   -0.7944 H   0  0  0  0  0  0
    6.0821    2.2183   -0.5816 H   0  0  0  0  0  0
  -14.9358   10.1078   10.4271 O   0  5  0  0  0  0
  -13.4172   10.1926    8.2947 O   0  5  0  0  0  0
   -6.3344    9.8496   12.1242 O   0  5  0  0  0  0
   -3.0959    9.7938    9.9878 O   0  5  0  0  0  0
  1  2  1  0  0  0
  1  3  1  0  0  0
  1  4  1  0  0  0
  2  5  1  0  0  0
  2  6  1  0  0  0
  2 54  1  0  0  0
  3  7  2  0  0  0
  3  8  1  0  0  0
  4  9  2  0  0  0
  4 55  1  0  0  0
  5 10  1  0  0  0
  5 11  1  0  0  0
  5 56  1  0  0  0
  6 12  1  0  0  0
  7 13  1  0  0  0
  7  9  1  0  0  0
  8 14  2  0  0  0
 10 15  1  0  0  0
 10 12  1  0  0  0
 10 57  1  0  0  0
 11 58  1  0  0  0
 12 16  1  0  0  0
 12 59  1  0  0  0
 13 17  2  0  0  0
 13 18  1  0  0  0
 14 17  1  0  0  0
 14 60  1  0  0  0
 15 19  1  0  0  0
 16 20  1  0  0  0
 16 61  1  0  0  0
 16 62  1  0  0  0
 18 63  1  0  0  0
 18 64  1  0  0  0
 19 21  2  0  0  0
 19 92  1  0  0  0
 19 93  1  0  0  0
 20 22  1  0  0  0
 22 23  1  0  0  0
 22 24  2  0  0  0
 22 94  1  0  0  0
 23 25  1  0  0  0
 25 26  1  0  0  0
 25 27  2  0  0  0
 25 95  1  0  0  0
 26 28  1  0  0  0
 28 29  1  0  0  0
 28 65  1  0  0  0
 28 66  1  0  0  0
 29 30  1  0  0  0
 29 31  1  0  0  0
 29 32  1  0  0  0
 30 33  1  0  0  0
 30 34  1  0  0  0
 30 67  1  0  0  0
 31 68  1  0  0  0
 31 69  1  0  0  0
 31 70  1  0  0  0
 32 71  1  0  0  0
 32 72  1  0  0  0
 32 73  1  0  0  0
 33 35  1  0  0  0
 33 36  2  0  0  0
 34 74  1  0  0  0
 35 37  1  0  0  0
 35 75  1  0  0  0
 37 38  1  0  0  0
 37 76  1  0  0  0
 37 77  1  0  0  0
 38 39  1  0  0  0
 38 78  1  0  0  0
 38 79  1  0  0  0
 39 40  1  0  0  0
 39 41  2  0  0  0
 40 42  1  0  0  0
 40 80  1  0  0  0
 42 43  1  0  0  0
 42 81  1  0  0  0
 42 82  1  0  0  0
 43 44  1  0  0  0
 43 83  1  0  0  0
 43 84  1  0  0  0
 44 45  1  0  0  0
 45 46  1  0  0  0
 45 47  2  0  0  0
 46 48  1  0  0  0
 46 85  1  0  0  0
 46 86  1  0  0  0
 48 49  1  0  0  0
 48 50  2  0  0  0
 49 51  2  0  0  0
 49 87  1  0  0  0
 50 52  1  0  0  0
 50 88  1  0  0  0
 51 53  1  0  0  0
 51 89  1  0  0  0
 52 53  2  0  0  0
 52 90  1  0  0  0
 53 91  1  0  0  0
M  CHG  4  92  -1  93  -1  94  -1  95  -1
M  END
> <i_ionizer_Ion_state_n>
30

> <i_ionizer_Tot_Q>
-4

> <s_ionizer_Ion_centers>
92_93_94_95

> <s_ionizer_Ion_types>
OM_OM_OM_OM

> <s_ionizer_Ion_ctrs_in>
21_22_26_30

> <r_ionizer_Ionization_penalty>
4.85714e-05

> <r_ionizer_Ionization_penalty_charging>
2.98356e-05

> <r_ionizer_Ionization_penalty_neutral>
1.87357e-05

> <s_st_Chirality_1>
2_R_6_1_5_54

> <s_st_Chirality_2>
5_R_11_2_10_56

> <s_st_Chirality_3>
10_R_15_5_12_57

> <s_st_Chirality_4>
12_R_6_10_16_59

> <s_st_Chirality_5>
30_R_34_33_29_67

> <i_mmod_Serial_Number-OPLS-2005>
286

> <i_i_glide_lignum>
284

> <r_i_docking_score>
-6.57138

> <r_i_glide_gscore>
-6.57138

> <r_i_glide_lipo>
-1.281

> <r_i_glide_hbond>
-1.68704

> <r_i_glide_metal>
0

> <r_i_glide_eburp>
0

> <r_i_glide_evdw>
-45.4178

> <r_i_glide_ecoul>
-5.32836

> <r_i_glide_erotb>
0.464808

> <r_i_glide_esite>
0.0981175

> <r_i_glide_emodel>
-97.0375

> <r_i_glide_energy>
-50.7462

> <r_i_glide_einternal>
21.5918

> <i_i_glide_confnum>
261

> <i_i_glide_posenum>
955

$$$$
C04734
                    3D
 Structure written by MMmdl.
 38 39  0  0  1  0            999 V2000
    2.1025    5.6225    1.2879 N   0  0  0  0  0  0
    3.0067    4.4475    1.5011 C   0  0  2  0  0  0
    0.7767    5.7840    1.6184 C   0  0  0  0  0  0
    2.4238    6.8037    0.6998 C   0  0  0  0  0  0
    2.2574    3.2555    1.3320 O   0  0  0  0  0  0
    3.4688    4.4406    2.9533 C   0  0  1  0  0  0
    0.3518    7.0345    1.1715 C   0  0  0  0  0  0
    0.0349    4.7662    2.2701 N   0  0  0  0  0  0
    2.4735    2.3477    2.4012 C   0  0  1  0  0  0
    3.5655    2.9681    3.2857 C   0  0  1  0  0  0
    4.7151    5.0910    3.1056 O   0  0  0  0  0  0
   -1.0335    7.6207    1.2061 C   0  0  0  0  0  0
   -1.2975    4.6441    2.2231 C   0  0  0  0  0  0
    1.1822    2.0452    3.1848 C   0  0  0  0  0  0
    4.8491    2.4295    3.0368 O   0  0  0  0  0  0
   -1.1375    8.9000    0.8350 N   0  0  0  0  0  0
   -2.0059    6.9684    1.5767 O   0  0  0  0  0  0
   -1.8996    3.6989    2.7249 O   0  0  0  0  0  0
    1.3805    0.9891    4.1103 O   0  0  0  0  0  0
    1.0966   -0.6619    3.4681 P   0  0  0  0  0  0
    0.1155   -0.4049    2.3009 O   0  0  0  0  0  0
    3.8115    4.5816    0.7770 H   0  0  0  0  0  0
    3.4084    7.0096    0.3214 H   0  0  0  0  0  0
    2.7449    4.9416    3.5978 H   0  0  0  0  0  0
    0.5110    4.2348    2.9848 H   0  0  0  0  0  0
    2.8725    1.4226    1.9816 H   0  0  0  0  0  0
    3.3176    2.8136    4.3338 H   0  0  0  0  0  0
    5.0638    5.2442    2.2392 H   0  0  0  0  0  0
   -1.7751    5.4928    1.7091 H   0  0  0  0  0  0
    0.8329    2.9400    3.6993 H   0  0  0  0  0  0
    0.3822    1.7708    2.4975 H   0  0  0  0  0  0
    4.9709    2.4168    2.0971 H   0  0  0  0  0  0
   -2.0456    9.3419    0.8463 H   0  0  0  0  0  0
   -0.3228    9.4278    0.5613 H   0  0  0  0  0  0
    1.4276    7.6722    0.5995 N   0  3  0  0  0  0
    1.4557    8.5765    0.1461 H   0  0  0  0  0  0
    2.5246   -1.0854    3.0618 O   0  5  0  0  0  0
    0.4996   -1.3684    4.7036 O   0  5  0  0  0  0
  1  2  1  0  0  0
  1  3  1  0  0  0
  1  4  1  0  0  0
  2  5  1  0  0  0
  2  6  1  0  0  0
  2 22  1  0  0  0
  3  7  2  0  0  0
  3  8  1  0  0  0
  4 23  1  0  0  0
  4 35  2  0  0  0
  5  9  1  0  0  0
  6 10  1  0  0  0
  6 11  1  0  0  0
  6 24  1  0  0  0
  7 12  1  0  0  0
  7 35  1  0  0  0
  8 13  1  0  0  0
  8 25  1  0  0  0
  9 14  1  0  0  0
  9 10  1  0  0  0
  9 26  1  0  0  0
 10 15  1  0  0  0
 10 27  1  0  0  0
 11 28  1  0  0  0
 12 16  1  0  0  0
 12 17  2  0  0  0
 13 18  2  0  0  0
 13 29  1  0  0  0
 14 19  1  0  0  0
 14 30  1  0  0  0
 14 31  1  0  0  0
 15 32  1  0  0  0
 16 33  1  0  0  0
 16 34  1  0  0  0
 19 20  1  0  0  0
 20 21  2  0  0  0
 20 37  1  0  0  0
 20 38  1  0  0  0
 35 36  1  0  0  0
M  CHG  3  35   1  37  -1  38  -1
M  END
> <i_ionizer_Ion_state_n>
7

> <i_ionizer_Tot_Q>
-1

> <s_ionizer_Ion_centers>
35_37_38

> <s_ionizer_Ion_types>
N4_OM_OM

> <s_ionizer_Ion_ctrs_in>
9_22_23

> <r_ionizer_Ionization_penalty>
0.410695

> <r_ionizer_Ionization_penalty_charging>
0.410695

> <r_ionizer_Ionization_penalty_neutral>
0

> <s_st_Chirality_1>
2_R_5_1_6_22

> <s_st_Chirality_2>
6_R_11_2_10_24

> <s_st_Chirality_3>
9_R_5_10_14_26

> <s_st_Chirality_4>
10_R_15_6_9_27

> <i_mmod_Serial_Number-OPLS-2005>
609

> <i_i_glide_lignum>
603

> <r_i_docking_score>
-6.57075

> <r_i_glide_gscore>
-6.57075

> <r_i_glide_lipo>
-0.52585

> <r_i_glide_hbond>
-2.06341

> <r_i_glide_metal>
0

> <r_i_glide_eburp>
-0.957661

> <r_i_glide_evdw>
-22.7878

> <r_i_glide_ecoul>
-17.2

> <r_i_glide_erotb>
0.659187

> <r_i_glide_esite>
-0.139987

> <r_i_glide_emodel>
-77.6822

> <r_i_glide_energy>
-39.9878

> <r_i_glide_einternal>
16.2907

> <i_i_glide_confnum>
205

> <i_i_glide_posenum>
275

$$$$
C00166
                    3D
 Structure written by MMmdl.
 19 19  0  0  1  0            999 V2000
    2.5821    2.5025    2.3399 C   0  0  0  0  0  0
    2.3628    3.9657    2.6854 C   0  0  0  0  0  0
    2.4733    1.5142    3.3407 C   0  0  0  0  0  0
    2.9021    2.1270    1.0181 C   0  0  0  0  0  0
    0.9592    4.4806    2.3333 C   0  0  0  0  0  0
    2.6793    0.1580    3.0205 C   0  0  0  0  0  0
    3.1080    0.7706    0.6987 C   0  0  0  0  0  0
   -0.2118    3.9061    3.1587 C   0  0  0  0  0  0
    0.7815    5.3095    1.4377 O   0  0  0  0  0  0
    2.9965   -0.2140    1.6996 C   0  0  0  0  0  0
   -1.3599    4.1005    2.6997 O   0  0  0  0  0  0
    2.5346    4.1102    3.7524 H   0  0  0  0  0  0
    3.1028    4.5712    2.1614 H   0  0  0  0  0  0
    2.2284    1.7942    4.3549 H   0  0  0  0  0  0
    2.9869    2.8782    0.2465 H   0  0  0  0  0  0
    2.5933   -0.5967    3.7883 H   0  0  0  0  0  0
    3.3508    0.4858   -0.3144 H   0  0  0  0  0  0
    3.1539   -1.2539    1.4543 H   0  0  0  0  0  0
    0.0999    3.3004    4.2085 O   0  5  0  0  0  0
  1  2  1  0  0  0
  1  3  2  0  0  0
  1  4  1  0  0  0
  2  5  1  0  0  0
  2 12  1  0  0  0
  2 13  1  0  0  0
  3  6  1  0  0  0
  3 14  1  0  0  0
  4  7  2  0  0  0
  4 15  1  0  0  0
  5  8  1  0  0  0
  5  9  2  0  0  0
  6 10  2  0  0  0
  6 16  1  0  0  0
  7 10  1  0  0  0
  7 17  1  0  0  0
  8 11  2  0  0  0
  8 19  1  0  0  0
 10 18  1  0  0  0
M  CHG  1  19  -1
M  END
> <i_ionizer_Ion_state_n>
1

> <i_ionizer_Tot_Q>
-1

> <s_ionizer_Ion_centers>
19

> <s_ionizer_Ion_types>
OM

> <s_ionizer_Ion_ctrs_in>
11

> <r_ionizer_Ionization_penalty>
0.00059219

> <r_ionizer_Ionization_penalty_charging>
0.00059219

> <r_ionizer_Ionization_penalty_neutral>
0

> <i_mmod_Serial_Number-OPLS-2005>
119

> <i_i_glide_lignum>
117

> <r_i_docking_score>
-6.56951

> <r_i_glide_gscore>
-6.56951

> <r_i_glide_lipo>
-0.591507

> <r_i_glide_hbond>
-1.4

> <r_i_glide_metal>
0

> <r_i_glide_eburp>
-2.9

> <r_i_glide_evdw>
-16.1243

> <r_i_glide_ecoul>
-6.03288

> <r_i_glide_erotb>
0.652152

> <r_i_glide_esite>
-0.436918

> <r_i_glide_emodel>
-48.8196

> <r_i_glide_energy>
-22.1572

> <r_i_glide_einternal>
1.27375

> <i_i_glide_confnum>
2

> <i_i_glide_posenum>
691

$$$$
C05641
                    3D
 Structure written by MMmdl.
 23 23  0  0  1  0            999 V2000
    3.8735    0.7588    2.0474 C   0  0  2  0  0  0
    3.0054    0.5098    3.2579 C   0  0  0  0  0  0
    3.7501    2.2026    1.5128 C   0  0  0  0  0  0
    3.5829   -0.3055    0.9931 C   0  0  0  0  0  0
    2.0649    1.3733    3.6509 C   0  0  0  0  0  0
    3.3064   -0.6293    3.8975 O   0  0  0  0  0  0
    2.6640    2.9802    1.9269 N   0  0  0  0  0  0
    4.5901    2.5973    0.7060 O   0  0  0  0  0  0
    4.4044   -0.8524    0.0705 C   0  0  0  0  0  0
    1.8649    2.6269    2.8768 C   0  0  0  0  0  0
    5.8298   -0.5138   -0.1530 C   0  0  0  0  0  0
    0.6962    3.5276    3.2216 C   0  0  0  0  0  0
    6.6277   -1.5024   -1.0298 C   0  0  0  0  0  0
    6.3885    0.4859    0.2999 O   0  0  0  0  0  0
    0.0976    3.3003    4.2982 O   0  0  0  0  0  0
    7.7622   -1.1239   -1.4002 O   0  0  0  0  0  0
    4.8955    0.6538    2.4064 H   0  0  0  0  0  0
    2.5620   -0.6596    0.9985 H   0  0  0  0  0  0
    1.4485    1.2042    4.5217 H   0  0  0  0  0  0
    2.7946   -0.6539    4.6914 H   0  0  0  0  0  0
    3.9826   -1.6069   -0.5778 H   0  0  0  0  0  0
    0.4228    4.4321    2.4003 O   0  5  0  0  0  0
    6.0530   -2.5804   -1.3013 O   0  5  0  0  0  0
  1  2  1  0  0  0
  1  3  1  0  0  0
  1  4  1  0  0  0
  1 17  1  0  0  0
  2  5  2  0  0  0
  2  6  1  0  0  0
  3  7  1  0  0  0
  3  8  2  0  0  0
  4  9  2  0  0  0
  4 18  1  0  0  0
  5 10  1  0  0  0
  5 19  1  0  0  0
  6 20  1  0  0  0
  7 10  2  0  0  0
  9 11  1  0  0  0
  9 21  1  0  0  0
 10 12  1  0  0  0
 11 13  1  0  0  0
 11 14  2  0  0  0
 12 15  2  0  0  0
 12 22  1  0  0  0
 13 16  2  0  0  0
 13 23  1  0  0  0
M  CHG  2  22  -1  23  -1
M  END
> <i_ionizer_Ion_state_n>
3

> <i_ionizer_Tot_Q>
-2

> <s_ionizer_Ion_centers>
22_23

> <s_ionizer_Ion_types>
OM_OM

> <s_ionizer_Ion_ctrs_in>
15_17

> <r_ionizer_Ionization_penalty>
0.00118438

> <r_ionizer_Ionization_penalty_charging>
0.00118438

> <r_ionizer_Ionization_penalty_neutral>
0

> <s_st_Chirality_1>
1_R_3_2_4_17

> <s_st_EZ_1>
6_2_5_10_E

> <s_st_EZ_2>
1_4_9_11_Z

> <s_st_EZ_3>
3_7_10_12_E

> <i_mmod_Serial_Number-OPLS-2005>
768

> <i_i_glide_lignum>
759

> <r_i_docking_score>
-6.55998

> <r_i_glide_gscore>
-6.55998

> <r_i_glide_lipo>
-0.434032

> <r_i_glide_hbond>
-1.2

> <r_i_glide_metal>
0

> <r_i_glide_eburp>
-1.8852

> <r_i_glide_evdw>
-24.526

> <r_i_glide_ecoul>
-8.19726

> <r_i_glide_erotb>
0.634966

> <r_i_glide_esite>
-0.893905

> <r_i_glide_emodel>
-68.3087

> <r_i_glide_energy>
-32.7233

> <r_i_glide_einternal>
3.49343

> <i_i_glide_confnum>
3

> <i_i_glide_posenum>
766

$$$$
C00250
                    3D
 Structure written by MMmdl.
 21 21  0  0  1  0            999 V2000
    2.1768    1.3740    3.2062 C   0  0  0  0  0  0
    2.2924    2.7905    3.0834 C   0  0  0  0  0  0
    3.2880    0.6600    3.7408 C   0  0  0  0  0  0
    0.9218    0.6731    2.7828 C   0  0  0  0  0  0
    3.5015    3.3955    3.4997 C   0  0  0  0  0  0
    1.1587    3.6532    2.5219 C   0  0  0  0  0  0
    4.4418    1.3818    4.1208 C   0  0  0  0  0  0
    3.2793   -0.7001    3.9001 O   0  0  0  0  0  0
    0.7687   -0.5441    2.6917 O   0  0  0  0  0  0
    4.5492    2.7183    4.0043 N   0  0  0  0  0  0
    0.3600    4.2966    3.4939 O   0  0  0  0  0  0
    5.6570    0.6773    4.6964 C   0  0  0  0  0  0
    0.0855    1.3256    2.5398 H   0  0  0  0  0  0
    3.6515    4.4625    3.4326 H   0  0  0  0  0  0
    1.5787    4.4248    1.8757 H   0  0  0  0  0  0
    0.5013    3.0326    1.9120 H   0  0  0  0  0  0
    3.9622   -1.0182    4.4704 H   0  0  0  0  0  0
    0.8523    5.0145    3.8625 H   0  0  0  0  0  0
    6.4541    1.3831    4.9341 H   0  0  0  0  0  0
    5.3910    0.1498    5.6126 H   0  0  0  0  0  0
    6.0504   -0.0455    3.9812 H   0  0  0  0  0  0
  1  2  2  0  0  0
  1  3  1  0  0  0
  1  4  1  0  0  0
  2  5  1  0  0  0
  2  6  1  0  0  0
  3  7  2  0  0  0
  3  8  1  0  0  0
  4  9  2  0  0  0
  4 13  1  0  0  0
  5 10  2  0  0  0
  5 14  1  0  0  0
  6 11  1  0  0  0
  6 15  1  0  0  0
  6 16  1  0  0  0
  7 12  1  0  0  0
  7 10  1  0  0  0
  8 17  1  0  0  0
 11 18  1  0  0  0
 12 19  1  0  0  0
 12 20  1  0  0  0
 12 21  1  0  0  0
M  END
> <i_ionizer_Ion_state_n>
0

> <i_ionizer_Tot_Q>
0

> <s_ionizer_Ion_centers>


> <s_ionizer_Ion_types>


> <s_ionizer_Ion_ctrs_in>


> <r_ionizer_Ionization_penalty>
0.0184459

> <r_ionizer_Ionization_penalty_charging>
0

> <r_ionizer_Ionization_penalty_neutral>
0.0184459

> <i_mmod_Serial_Number-OPLS-2005>
164

> <i_i_glide_lignum>
162

> <r_i_docking_score>
-6.55261

> <r_i_glide_gscore>
-6.55261

> <r_i_glide_lipo>
-0.628293

> <r_i_glide_hbond>
-0.783919

> <r_i_glide_metal>
0

> <r_i_glide_eburp>
-2.5

> <r_i_glide_evdw>
-22.707

> <r_i_glide_ecoul>
-6.99922

> <r_i_glide_erotb>
0.626945

> <r_i_glide_esite>
-0.750865

> <r_i_glide_emodel>
-40.0301

> <r_i_glide_energy>
-29.7062

> <r_i_glide_einternal>
0.852145

> <i_i_glide_confnum>
3

> <i_i_glide_posenum>
473

$$$$
C00198
                    3D
 Structure written by MMmdl.
 22 22  0  0  1  0            999 V2000
    4.6956    0.6118    3.4236 C   0  0  2  0  0  0
    3.5031   -0.3480    3.5828 C   0  0  2  0  0  0
    5.3007    0.5020    2.1354 O   0  0  0  0  0  0
    5.8020    0.3316    4.4556 C   0  0  0  0  0  0
    2.5159   -0.1185    2.4327 C   0  0  1  0  0  0
    2.8492   -0.0575    4.8040 O   0  0  0  0  0  0
    4.5854    0.4334    0.9870 C   0  0  0  0  0  0
    5.2986    0.5006    5.7643 O   0  0  0  0  0  0
    3.2250   -0.2872    1.0803 C   0  0  2  0  0  0
    1.5011   -1.1031    2.5071 O   0  0  0  0  0  0
    5.0416    0.7867   -0.0997 O   0  0  0  0  0  0
    2.3669    0.1547    0.0454 O   0  0  0  0  0  0
    4.3329    1.6341    3.5438 H   0  0  0  0  0  0
    3.8524   -1.3814    3.5875 H   0  0  0  0  0  0
    6.1467   -0.6993    4.3743 H   0  0  0  0  0  0
    6.6680    0.9736    4.2919 H   0  0  0  0  0  0
    2.0724    0.8759    2.5030 H   0  0  0  0  0  0
    3.3250   -0.4721    5.5073 H   0  0  0  0  0  0
    4.8977   -0.3094    6.0408 H   0  0  0  0  0  0
    3.4287   -1.3460    0.9157 H   0  0  0  0  0  0
    1.1096   -1.0674    3.3665 H   0  0  0  0  0  0
    2.8039    0.0033   -0.7792 H   0  0  0  0  0  0
  1  2  1  0  0  0
  1  3  1  0  0  0
  1  4  1  0  0  0
  1 13  1  0  0  0
  2  5  1  0  0  0
  2  6  1  0  0  0
  2 14  1  0  0  0
  3  7  1  0  0  0
  4  8  1  0  0  0
  4 15  1  0  0  0
  4 16  1  0  0  0
  5  9  1  0  0  0
  5 10  1  0  0  0
  5 17  1  0  0  0
  6 18  1  0  0  0
  7 11  2  0  0  0
  7  9  1  0  0  0
  8 19  1  0  0  0
  9 12  1  0  0  0
  9 20  1  0  0  0
 10 21  1  0  0  0
 12 22  1  0  0  0
M  END
> <i_ionizer_Ion_state_n>
0

> <i_ionizer_Tot_Q>
0

> <s_ionizer_Ion_centers>


> <s_ionizer_Ion_types>


> <s_ionizer_Ion_ctrs_in>


> <r_ionizer_Ionization_penalty>
0

> <r_ionizer_Ionization_penalty_charging>
0

> <r_ionizer_Ionization_penalty_neutral>
0

> <s_st_Chirality_1>
1_R_3_2_4_13

> <s_st_Chirality_2>
2_R_6_5_1_14

> <s_st_Chirality_3>
5_S_10_9_2_17

> <s_st_Chirality_4>
9_R_12_7_5_20

> <i_mmod_Serial_Number-OPLS-2005>
137

> <i_i_glide_lignum>
135

> <r_i_docking_score>
-6.55148

> <r_i_glide_gscore>
-6.55148

> <r_i_glide_lipo>
-0.508089

> <r_i_glide_hbond>
-1.15287

> <r_i_glide_metal>
0

> <r_i_glide_eburp>
-2.43831

> <r_i_glide_evdw>
-17.3852

> <r_i_glide_ecoul>
-13.0494

> <r_i_glide_erotb>
0.565095

> <r_i_glide_esite>
-0.321561

> <r_i_glide_emodel>
-40.2101

> <r_i_glide_energy>
-30.4346

> <r_i_glide_einternal>
2.60242

> <i_i_glide_confnum>
1

> <i_i_glide_posenum>
643

$$$$
C03722
                    3D
 Structure written by MMmdl.
 15 15  0  0  1  0            999 V2000
    1.6579    1.1013    1.8701 C   0  0  0  0  0  0
    1.4721    2.2801    2.6624 C   0  0  0  0  0  0
    2.4806    1.2057    0.7251 C   0  0  0  0  0  0
    1.0755   -0.2507    2.1960 C   0  0  0  0  0  0
    2.1089    3.4431    2.3710 N   0  0  0  0  0  0
    0.5172    2.3734    3.8296 C   0  0  0  0  0  0
    3.1148    2.4231    0.4237 C   0  0  0  0  0  0
    0.0640   -0.6520    1.5796 O   0  0  0  0  0  0
    2.9055    3.5087    1.2880 C   0  0  0  0  0  0
    0.5205    1.4731    4.6994 O   0  0  0  0  0  0
    2.6520    0.3502    0.0876 H   0  0  0  0  0  0
    3.7564    2.5162   -0.4396 H   0  0  0  0  0  0
    3.3827    4.4590    1.0997 H   0  0  0  0  0  0
    1.5899   -0.9040    3.1317 O   0  5  0  0  0  0
   -0.2999    3.3227    3.8589 O   0  5  0  0  0  0
  1  2  1  0  0  0
  1  3  2  0  0  0
  1  4  1  0  0  0
  2  5  2  0  0  0
  2  6  1  0  0  0
  3  7  1  0  0  0
  3 11  1  0  0  0
  4  8  2  0  0  0
  4 14  1  0  0  0
  5  9  1  0  0  0
  6 10  2  0  0  0
  6 15  1  0  0  0
  7  9  2  0  0  0
  7 12  1  0  0  0
  9 13  1  0  0  0
M  CHG  2  14  -1  15  -1
M  END
> <i_ionizer_Ion_state_n>
6

> <i_ionizer_Tot_Q>
-2

> <s_ionizer_Ion_centers>
14_15

> <s_ionizer_Ion_types>
OM_OM

> <s_ionizer_Ion_ctrs_in>
8_11

> <r_ionizer_Ionization_penalty>
0.0196303

> <r_ionizer_Ionization_penalty_charging>
0.00118438

> <r_ionizer_Ionization_penalty_neutral>
0.0184459

> <i_mmod_Serial_Number-OPLS-2005>
562

> <i_i_glide_lignum>
556

> <r_i_docking_score>
-6.53918

> <r_i_glide_gscore>
-6.53918

> <r_i_glide_lipo>
-0.418214

> <r_i_glide_hbond>
-1.05481

> <r_i_glide_metal>
0

> <r_i_glide_eburp>
-2.5

> <r_i_glide_evdw>
-13.0109

> <r_i_glide_ecoul>
-7.43922

> <r_i_glide_erotb>
0

> <r_i_glide_esite>
-0.781361

> <r_i_glide_emodel>
-50.4041

> <r_i_glide_energy>
-20.4501

> <r_i_glide_einternal>
6.30941

> <i_i_glide_confnum>
1

> <i_i_glide_posenum>
196

$$$$
C00055
                    3D
 Structure written by MMmdl.
 33 34  0  0  1  0            999 V2000
    2.0678    4.5400    1.3951 C   0  0  2  0  0  0
    1.0841    5.6804    1.5182 N   0  0  0  0  0  0
    1.4751    3.3816    1.9061 O   0  0  0  0  0  0
    3.3313    4.8361    2.2163 C   0  0  1  0  0  0
    0.2115    5.7180    2.6306 C   0  0  0  0  0  0
    1.0014    6.6652    0.5439 C   0  0  0  0  0  0
    2.3202    2.7847    2.8861 C   0  0  1  0  0  0
    3.1222    3.9618    3.4446 C   0  0  1  0  0  0
    4.4992    4.4750    1.5030 O   0  0  0  0  0  0
   -0.6705    6.7628    2.7014 N   0  0  0  0  0  0
    0.2290    4.8480    3.5001 O   0  0  0  0  0  0
    0.1227    7.6878    0.6283 C   0  0  0  0  0  0
    1.4542    2.0196    3.9001 C   0  0  0  0  0  0
    4.3439    3.5857    4.0499 O   0  0  0  0  0  0
   -0.7436    7.7081    1.7851 C   0  0  0  0  0  0
    0.5644    1.1375    3.2369 O   0  0  0  0  0  0
   -1.6411    8.6902    1.9439 N   0  0  0  0  0  0
    1.3284   -0.0537    2.1399 P   0  0  0  0  0  0
    2.1033   -0.9488    3.1320 O   0  0  0  0  0  0
    2.2552    4.4026    0.3290 H   0  0  0  0  0  0
    3.3987    5.8930    2.4783 H   0  0  0  0  0  0
    1.6523    6.6306   -0.3175 H   0  0  0  0  0  0
    2.9799    2.0941    2.3578 H   0  0  0  0  0  0
    2.5203    4.5066    4.1731 H   0  0  0  0  0  0
    5.0708    5.2295    1.5019 H   0  0  0  0  0  0
    0.0960    8.4371   -0.1499 H   0  0  0  0  0  0
    2.0752    1.5108    4.6382 H   0  0  0  0  0  0
    0.8357    2.7255    4.4542 H   0  0  0  0  0  0
    4.8247    3.0661    3.4087 H   0  0  0  0  0  0
   -1.7189    9.4254    1.2565 H   0  0  0  0  0  0
   -2.2399    8.6890    2.7568 H   0  0  0  0  0  0
    0.0994   -0.6987    1.4614 O   0  5  0  0  0  0
    2.1920    0.8620    1.2460 O   0  5  0  0  0  0
  1  2  1  0  0  0
  1  3  1  0  0  0
  1  4  1  0  0  0
  1 20  1  0  0  0
  2  5  1  0  0  0
  2  6  1  0  0  0
  3  7  1  0  0  0
  4  8  1  0  0  0
  4  9  1  0  0  0
  4 21  1  0  0  0
  5 10  1  0  0  0
  5 11  2  0  0  0
  6 12  2  0  0  0
  6 22  1  0  0  0
  7 13  1  0  0  0
  7  8  1  0  0  0
  7 23  1  0  0  0
  8 14  1  0  0  0
  8 24  1  0  0  0
  9 25  1  0  0  0
 10 15  2  0  0  0
 12 15  1  0  0  0
 12 26  1  0  0  0
 13 16  1  0  0  0
 13 27  1  0  0  0
 13 28  1  0  0  0
 14 29  1  0  0  0
 15 17  1  0  0  0
 16 18  1  0  0  0
 17 30  1  0  0  0
 17 31  1  0  0  0
 18 19  2  0  0  0
 18 32  1  0  0  0
 18 33  1  0  0  0
M  CHG  2  32  -1  33  -1
M  END
> <i_ionizer_Ion_state_n>
3

> <i_ionizer_Tot_Q>
-2

> <s_ionizer_Ion_centers>
32_33

> <s_ionizer_Ion_types>
OM_OM

> <s_ionizer_Ion_ctrs_in>
19_20

> <r_ionizer_Ionization_penalty>
1.49178e-05

> <r_ionizer_Ionization_penalty_charging>
1.49178e-05

> <r_ionizer_Ionization_penalty_neutral>
0

> <s_st_Chirality_1>
1_R_3_2_4_20

> <s_st_Chirality_2>
4_R_9_1_8_21

> <s_st_Chirality_3>
7_R_3_8_13_23

> <s_st_Chirality_4>
8_R_14_4_7_24

> <i_mmod_Serial_Number-OPLS-2005>
39

> <i_i_glide_lignum>
38

> <r_i_docking_score>
-6.53041

> <r_i_glide_gscore>
-6.53041

> <r_i_glide_lipo>
-0.654283

> <r_i_glide_hbond>
-1.48317

> <r_i_glide_metal>
0

> <r_i_glide_eburp>
-1.35466

> <r_i_glide_evdw>
-27.0093

> <r_i_glide_ecoul>
-13.4076

> <r_i_glide_erotb>
0.620942

> <r_i_glide_esite>
-0.157737

> <r_i_glide_emodel>
-81.8075

> <r_i_glide_energy>
-40.4169

> <r_i_glide_einternal>
7.06123

> <i_i_glide_confnum>
15

> <i_i_glide_posenum>
865

$$$$
C02814
                    3D
 Structure written by MMmdl.
 15 15  0  0  1  0            999 V2000
    4.5939    1.2451    4.5963 C   0  0  0  0  0  0
    3.5937    0.6423    3.8011 C   0  0  0  0  0  0
    4.8441    2.6275    4.4804 C   0  0  0  0  0  0
    5.3234    0.4999    5.4791 O   0  0  0  0  0  0
    2.8503    1.4258    2.8953 C   0  0  0  0  0  0
    3.3385   -0.6960    3.9010 O   0  0  0  0  0  0
    4.0996    3.4081    3.5743 C   0  0  0  0  0  0
    3.1024    2.8068    2.7815 C   0  0  0  0  0  0
    4.3466    4.7457    3.4667 O   0  0  0  0  0  0
    5.6079    3.0931    5.0862 H   0  0  0  0  0  0
    5.0739   -0.4109    5.4937 H   0  0  0  0  0  0
    2.0842    0.9713    2.2843 H   0  0  0  0  0  0
    3.8729   -1.1310    4.5469 H   0  0  0  0  0  0
    2.5280    3.3998    2.0848 H   0  0  0  0  0  0
    3.8490    5.1634    2.7805 H   0  0  0  0  0  0
  1  2  1  0  0  0
  1  3  2  0  0  0
  1  4  1  0  0  0
  2  5  2  0  0  0
  2  6  1  0  0  0
  3  7  1  0  0  0
  3 10  1  0  0  0
  4 11  1  0  0  0
  5  8  1  0  0  0
  5 12  1  0  0  0
  6 13  1  0  0  0
  7  9  1  0  0  0
  7  8  2  0  0  0
  8 14  1  0  0  0
  9 15  1  0  0  0
M  END
> <i_ionizer_Ion_state_n>
0

> <i_ionizer_Tot_Q>
0

> <s_ionizer_Ion_centers>


> <s_ionizer_Ion_types>


> <s_ionizer_Ion_ctrs_in>


> <r_ionizer_Ionization_penalty>
0.00177657

> <r_ionizer_Ionization_penalty_charging>
0

> <r_ionizer_Ionization_penalty_neutral>
0.00177657

> <i_mmod_Serial_Number-OPLS-2005>
510

> <i_i_glide_lignum>
504

> <r_i_docking_score>
-6.52623

> <r_i_glide_gscore>
-6.52623

> <r_i_glide_lipo>
-0.558861

> <r_i_glide_hbond>
-0.9

> <r_i_glide_metal>
0

> <r_i_glide_eburp>
-2.5

> <r_i_glide_evdw>
-16.0146

> <r_i_glide_ecoul>
-9.50663

> <r_i_glide_erotb>
0

> <r_i_glide_esite>
-0.335544

> <r_i_glide_emodel>
-32.5472

> <r_i_glide_energy>
-25.5212

> <r_i_glide_einternal>
0.0286768

> <i_i_glide_confnum>
1

> <i_i_glide_posenum>
330

$$$$
C07098
                    3D
 Structure written by MMmdl.
 13 13  0  0  1  0            999 V2000
    2.9700    0.5717    3.6472 C   0  0  0  0  0  0
    4.0342    1.4285    4.0068 C   0  0  0  0  0  0
    1.9755    1.0253    2.7529 C   0  0  0  0  0  0
    2.8999   -0.6928    4.1610 O   0  0  0  0  0  0
    4.0999    2.7308    3.4731 C   0  0  0  0  0  0
    5.2644    0.8992    5.0987 Cl  0  0  0  0  0  0
    2.0460    2.3283    2.2222 C   0  0  0  0  0  0
    0.6654   -0.0062    2.2998 Cl  0  0  0  0  0  0
    3.1072    3.1808    2.5818 C   0  0  0  0  0  0
    3.1912    4.7761    1.9304 Cl  0  0  0  0  0  0
    3.6346   -0.9021    4.7180 H   0  0  0  0  0  0
    4.9138    3.3855    3.7484 H   0  0  0  0  0  0
    1.2847    2.6741    1.5383 H   0  0  0  0  0  0
  1  2  1  0  0  0
  1  3  2  0  0  0
  1  4  1  0  0  0
  2  5  2  0  0  0
  2  6  1  0  0  0
  3  7  1  0  0  0
  3  8  1  0  0  0
  4 11  1  0  0  0
  5  9  1  0  0  0
  5 12  1  0  0  0
  7  9  2  0  0  0
  7 13  1  0  0  0
  9 10  1  0  0  0
M  END
> <i_ionizer_Ion_state_n>
0

> <i_ionizer_Tot_Q>
0

> <s_ionizer_Ion_centers>


> <s_ionizer_Ion_types>


> <s_ionizer_Ion_ctrs_in>


> <r_ionizer_Ionization_penalty>
0.00059219

> <r_ionizer_Ionization_penalty_charging>
0

> <r_ionizer_Ionization_penalty_neutral>
0.00059219

> <i_mmod_Serial_Number-OPLS-2005>
896

> <i_i_glide_lignum>
884

> <r_i_docking_score>
-6.52357

> <r_i_glide_gscore>
-6.52357

> <r_i_glide_lipo>
-0.837002

> <r_i_glide_hbond>
-0.45

> <r_i_glide_metal>
0

> <r_i_glide_eburp>
-2.29205

> <r_i_glide_evdw>
-23.0255

> <r_i_glide_ecoul>
-3.09882

> <r_i_glide_erotb>
0

> <r_i_glide_esite>
-0.792602

> <r_i_glide_emodel>
-32.6895

> <r_i_glide_energy>
-26.1243

> <r_i_glide_einternal>
0.00597625

> <i_i_glide_confnum>
1

> <i_i_glide_posenum>
310

$$$$
C05643
                    3D
 Structure written by MMmdl.
 34 35  0  0  1  0            999 V2000
    2.7994    2.9626    2.9087 C   0  0  0  0  0  0
    3.8903    2.5171    3.7084 C   0  0  0  0  0  0
    2.9104    4.3896    2.7531 C   0  0  0  0  0  0
    1.8831    1.9836    2.4564 C   0  0  0  0  0  0
    4.0631    1.1637    4.0418 C   0  0  0  0  0  0
    4.6169    3.6509    4.0109 N   0  0  0  0  0  0
    4.0340    4.7697    3.4423 C   0  0  0  0  0  0
    1.9871    5.2930    1.9939 C   0  0  0  0  0  0
    2.0376    0.6107    2.7821 C   0  0  0  0  0  0
    3.1352    0.2149    3.5769 C   0  0  0  0  0  0
    0.6919    5.5767    2.7665 C   0  0  0  0  0  0
    1.1720   -0.3805    2.3669 O   0  0  0  0  0  0
    3.3001   -1.1001    3.8995 O   0  0  0  0  0  0
   -0.2419    6.3351    1.9457 N   0  0  0  0  0  0
    0.3195   -0.1092    1.2640 C   0  0  0  0  0  0
   -1.4982    5.9509    1.6815 C   0  0  0  0  0  0
   -2.3435    6.9195    0.8620 C   0  0  0  0  0  0
   -1.9758    4.8832    2.0631 O   0  0  0  0  0  0
    1.0570    2.3232    1.8513 H   0  0  0  0  0  0
    4.9003    0.8549    4.6500 H   0  0  0  0  0  0
    5.4589    3.6878    4.5675 H   0  0  0  0  0  0
    4.4676    5.7504    3.5752 H   0  0  0  0  0  0
    2.4902    6.2342    1.7679 H   0  0  0  0  0  0
    1.7455    4.8427    1.0303 H   0  0  0  0  0  0
    0.2245    4.6393    3.0729 H   0  0  0  0  0  0
    0.9128    6.1392    3.6752 H   0  0  0  0  0  0
    3.9713   -1.2180    4.5550 H   0  0  0  0  0  0
    0.0861    7.2063    1.5550 H   0  0  0  0  0  0
   -0.3006   -0.9833    1.0656 H   0  0  0  0  0  0
   -0.3483    0.7278    1.4723 H   0  0  0  0  0  0
    0.8920    0.1004    0.3595 H   0  0  0  0  0  0
   -3.3447    6.5185    0.7010 H   0  0  0  0  0  0
   -2.4377    7.8748    1.3789 H   0  0  0  0  0  0
   -1.8858    7.0952   -0.1119 H   0  0  0  0  0  0
  1  2  2  0  0  0
  1  3  1  0  0  0
  1  4  1  0  0  0
  2  5  1  0  0  0
  2  6  1  0  0  0
  3  7  2  0  0  0
  3  8  1  0  0  0
  4  9  2  0  0  0
  4 19  1  0  0  0
  5 10  2  0  0  0
  5 20  1  0  0  0
  6  7  1  0  0  0
  6 21  1  0  0  0
  7 22  1  0  0  0
  8 11  1  0  0  0
  8 23  1  0  0  0
  8 24  1  0  0  0
  9 12  1  0  0  0
  9 10  1  0  0  0
 10 13  1  0  0  0
 11 14  1  0  0  0
 11 25  1  0  0  0
 11 26  1  0  0  0
 12 15  1  0  0  0
 13 27  1  0  0  0
 14 16  1  0  0  0
 14 28  1  0  0  0
 15 29  1  0  0  0
 15 30  1  0  0  0
 15 31  1  0  0  0
 16 17  1  0  0  0
 16 18  2  0  0  0
 17 32  1  0  0  0
 17 33  1  0  0  0
 17 34  1  0  0  0
M  END
> <i_ionizer_Ion_state_n>
0

> <i_ionizer_Tot_Q>
0

> <s_ionizer_Ion_centers>


> <s_ionizer_Ion_types>


> <s_ionizer_Ion_ctrs_in>


> <r_ionizer_Ionization_penalty>
0.00059219

> <r_ionizer_Ionization_penalty_charging>
0

> <r_ionizer_Ionization_penalty_neutral>
0.00059219

> <i_mmod_Serial_Number-OPLS-2005>
770

> <i_i_glide_lignum>
761

> <r_i_docking_score>
-6.51649

> <r_i_glide_gscore>
-6.51649

> <r_i_glide_lipo>
-1.06712

> <r_i_glide_hbond>
-0.824741

> <r_i_glide_metal>
0

> <r_i_glide_eburp>
-1.90694

> <r_i_glide_evdw>
-28.7589

> <r_i_glide_ecoul>
-8.73347

> <r_i_glide_erotb>
0.971397

> <r_i_glide_esite>
-0.515031

> <r_i_glide_emodel>
-55.4238

> <r_i_glide_energy>
-37.4923

> <r_i_glide_einternal>
1.18298

> <i_i_glide_confnum>
3

> <i_i_glide_posenum>
218

$$$$
C05775
                    3D
 Structure written by MMmdl.
 38 40  0  0  1  0            999 V2000
    2.2380    2.6784    2.8939 N   0  0  0  0  0  0
    1.7993    3.8975    2.4080 C   0  0  0  0  0  0
    3.5850    2.0679    2.6544 C   0  0  1  0  0  0
    1.1977    2.1949    3.6031 C   0  0  0  0  0  0
    0.4691    4.0396    2.8984 C   0  0  0  0  0  0
    2.3922    4.8875    1.6037 C   0  0  0  0  0  0
    4.5079    2.1241    3.7578 O   0  0  0  0  0  0
    3.4625    0.5746    2.3752 C   0  0  1  0  0  0
    0.0996    2.9449    3.6614 N   0  0  0  0  0  0
   -0.2485    5.2075    2.5604 C   0  0  0  0  0  0
    1.6620    6.0486    1.2738 C   0  0  0  0  0  0
    4.5398    0.9300    4.4703 C   0  0  1  0  0  0
    3.6097   -0.0532    3.7436 C   0  0  1  0  0  0
    2.2266    0.2420    1.7613 O   0  0  0  0  0  0
    0.3376    6.2092    1.7544 C   0  0  0  0  0  0
    2.3118    7.1103    0.4041 C   0  0  0  0  0  0
    5.9959    0.4401    4.4341 C   0  0  0  0  0  0
    2.3705   -0.2342    4.4053 O   0  0  0  0  0  0
   -0.4693    7.4496    1.4137 C   0  0  0  0  0  0
    6.4320    0.0845    5.7298 O   0  0  0  0  0  0
    3.9900    2.6147    1.8021 H   0  0  0  0  0  0
    1.2461    1.2415    4.1079 H   0  0  0  0  0  0
    3.4003    4.7523    1.2412 H   0  0  0  0  0  0
    4.2732    0.2474    1.7235 H   0  0  0  0  0  0
   -1.2572    5.3258    2.9272 H   0  0  0  0  0  0
    4.1945    1.0408    5.4999 H   0  0  0  0  0  0
    4.1086   -1.0187    3.6468 H   0  0  0  0  0  0
    2.2320    0.6136    0.8912 H   0  0  0  0  0  0
    3.3268    6.8283    0.1229 H   0  0  0  0  0  0
    1.7394    7.2562   -0.5122 H   0  0  0  0  0  0
    2.3639    8.0605    0.9359 H   0  0  0  0  0  0
    6.1045   -0.4141    3.7650 H   0  0  0  0  0  0
    6.6452    1.2301    4.0560 H   0  0  0  0  0  0
    2.5393   -0.6695    5.2287 H   0  0  0  0  0  0
   -0.5928    7.5404    0.3344 H   0  0  0  0  0  0
   -1.4627    7.4146    1.8620 H   0  0  0  0  0  0
    0.0322    8.3447    1.7822 H   0  0  0  0  0  0
    5.9979   -0.7159    5.9846 H   0  0  0  0  0  0
  1  2  1  0  0  0
  1  3  1  0  0  0
  1  4  1  0  0  0
  2  5  2  0  0  0
  2  6  1  0  0  0
  3  7  1  0  0  0
  3  8  1  0  0  0
  3 21  1  0  0  0
  4  9  2  0  0  0
  4 22  1  0  0  0
  5 10  1  0  0  0
  5  9  1  0  0  0
  6 11  2  0  0  0
  6 23  1  0  0  0
  7 12  1  0  0  0
  8 13  1  0  0  0
  8 14  1  0  0  0
  8 24  1  0  0  0
 10 15  2  0  0  0
 10 25  1  0  0  0
 11 16  1  0  0  0
 11 15  1  0  0  0
 12 17  1  0  0  0
 12 13  1  0  0  0
 12 26  1  0  0  0
 13 18  1  0  0  0
 13 27  1  0  0  0
 14 28  1  0  0  0
 15 19  1  0  0  0
 16 29  1  0  0  0
 16 30  1  0  0  0
 16 31  1  0  0  0
 17 20  1  0  0  0
 17 32  1  0  0  0
 17 33  1  0  0  0
 18 34  1  0  0  0
 19 35  1  0  0  0
 19 36  1  0  0  0
 19 37  1  0  0  0
 20 38  1  0  0  0
M  END
> <i_ionizer_Ion_state_n>
0

> <i_ionizer_Tot_Q>
0

> <s_ionizer_Ion_centers>


> <s_ionizer_Ion_types>


> <s_ionizer_Ion_ctrs_in>


> <r_ionizer_Ionization_penalty>
0.41068

> <r_ionizer_Ionization_penalty_charging>
0

> <r_ionizer_Ionization_penalty_neutral>
0.41068

> <s_st_Chirality_1>
3_S_7_1_8_21

> <s_st_Chirality_2>
12_R_7_13_17_26

> <s_st_Chirality_3>
8_R_14_3_13_24

> <s_st_Chirality_4>
13_R_18_8_12_27

> <i_mmod_Serial_Number-OPLS-2005>
787

> <i_i_glide_lignum>
778

> <r_i_docking_score>
-6.51522

> <r_i_glide_gscore>
-6.51522

> <r_i_glide_lipo>
-1.1274

> <r_i_glide_hbond>
-0.677644

> <r_i_glide_metal>
0

> <r_i_glide_eburp>
-1.67947

> <r_i_glide_evdw>
-27.538

> <r_i_glide_ecoul>
-10.0641

> <r_i_glide_erotb>
0.531875

> <r_i_glide_esite>
-0.35314

> <r_i_glide_emodel>
-54.4926

> <r_i_glide_energy>
-37.6021

> <r_i_glide_einternal>
5.63099

> <i_i_glide_confnum>
10

> <i_i_glide_posenum>
330

$$$$
C06645
                    3D
 Structure written by MMmdl.
 29 29  0  0  1  0            999 V2000
    4.9824    0.3264    0.3886 C   0  0  0  0  0  0
    3.9641    0.1111    1.4370 C   0  0  0  0  0  0
    5.4587    1.7338    0.2956 C   0  0  0  0  0  0
    5.3926   -0.6666   -0.4392 C   0  0  0  0  0  0
    4.2826    0.3123    2.7991 C   0  0  0  0  0  0
    2.6532   -0.2855    1.0901 C   0  0  0  0  0  0
    4.5890    2.8100    0.8139 C   0  0  0  0  0  0
    6.5371    1.9929   -0.2420 O   0  0  0  0  0  0
    6.4855   -0.5091   -1.7737 Cl  0  0  0  0  0  0
    4.8446   -2.3005   -0.2972 Cl  0  0  0  0  0  0
    3.3092    0.1136    3.7974 C   0  0  0  0  0  0
    1.6790   -0.4848    2.0874 C   0  0  0  0  0  0
    3.4083    2.5518    1.4120 C   0  0  0  0  0  0
    2.0067   -0.2858    3.4421 C   0  0  0  0  0  0
    2.5072    3.5729    1.9455 C   0  0  0  0  0  0
    0.8138   -0.5296    4.6645 Cl  0  0  0  0  0  0
    1.3165    3.2335    2.5101 C   0  0  0  0  0  0
    3.0116    5.2302    1.8280 Cl  0  0  0  0  0  0
    0.2264    4.1899    3.1305 C   0  0  0  0  0  0
    0.9701    1.9382    2.5763 O   0  0  0  0  0  0
   -0.8642    3.7008    3.4943 O   0  0  0  0  0  0
    5.2789    0.6189    3.0832 H   0  0  0  0  0  0
    2.3909   -0.4369    0.0531 H   0  0  0  0  0  0
    4.9415    3.8239    0.7040 H   0  0  0  0  0  0
    3.5633    0.2687    4.8356 H   0  0  0  0  0  0
    0.6802   -0.7890    1.8112 H   0  0  0  0  0  0
    3.1117    1.5162    1.4970 H   0  0  0  0  0  0
    1.6871    1.4564    2.1865 H   0  0  0  0  0  0
    0.5614    5.3939    3.2057 O   0  5  0  0  0  0
  1  2  1  0  0  0
  1  3  1  0  0  0
  1  4  2  0  0  0
  2  5  1  0  0  0
  2  6  2  0  0  0
  3  7  1  0  0  0
  3  8  2  0  0  0
  4  9  1  0  0  0
  4 10  1  0  0  0
  5 11  2  0  0  0
  5 22  1  0  0  0
  6 12  1  0  0  0
  6 23  1  0  0  0
  7 13  2  0  0  0
  7 24  1  0  0  0
 11 14  1  0  0  0
 11 25  1  0  0  0
 12 14  2  0  0  0
 12 26  1  0  0  0
 13 15  1  0  0  0
 13 27  1  0  0  0
 14 16  1  0  0  0
 15 17  2  0  0  0
 15 18  1  0  0  0
 17 19  1  0  0  0
 17 20  1  0  0  0
 19 21  2  0  0  0
 19 29  1  0  0  0
 20 28  1  0  0  0
M  CHG  1  29  -1
M  END
> <i_ionizer_Ion_state_n>
1

> <i_ionizer_Tot_Q>
-1

> <s_ionizer_Ion_centers>
29

> <s_ionizer_Ion_types>
OM

> <s_ionizer_Ion_ctrs_in>
21

> <r_ionizer_Ionization_penalty>
0.00059219

> <r_ionizer_Ionization_penalty_charging>
0.00059219

> <r_ionizer_Ionization_penalty_neutral>
0

> <s_st_EZ_1>
3_7_13_15_E

> <i_mmod_Serial_Number-OPLS-2005>
880

> <i_i_glide_lignum>
868

> <r_i_docking_score>
-6.50998

> <r_i_glide_gscore>
-6.50998

> <r_i_glide_lipo>
-1.46228

> <r_i_glide_hbond>
-1.29794

> <r_i_glide_metal>
0

> <r_i_glide_eburp>
-1.30135

> <r_i_glide_evdw>
-25.9175

> <r_i_glide_ecoul>
-6.31397

> <r_i_glide_erotb>
0.763861

> <r_i_glide_esite>
-0.507465

> <r_i_glide_emodel>
-68.9954

> <r_i_glide_energy>
-32.2314

> <r_i_glide_einternal>
2.36588

> <i_i_glide_confnum>
1

> <i_i_glide_posenum>
489

$$$$
C00355
                    3D
 Structure written by MMmdl.
 25 25  0  0  1  0            999 V2000
    1.9613    0.6422    2.4729 C   0  0  0  0  0  0
    3.0145    0.2277    3.3176 C   0  0  0  0  0  0
    1.7017    2.0161    2.2970 C   0  0  0  0  0  0
    1.1895   -0.2769    1.8204 O   0  0  0  0  0  0
    3.8027    1.1904    3.9791 C   0  0  0  0  0  0
    3.2789   -1.1002    3.5001 O   0  0  0  0  0  0
    2.4913    2.9806    2.9579 C   0  0  0  0  0  0
    3.5423    2.5626    3.8000 C   0  0  0  0  0  0
    2.2154    4.4640    2.7648 C   0  0  0  0  0  0
    0.7780    4.7793    2.2855 C   0  0  1  0  0  0
   -0.2909    4.0348    3.0996 C   0  0  0  0  0  0
   -1.4752    4.1010    2.6994 O   0  0  0  0  0  0
    0.8998    2.3332    1.6460 H   0  0  0  0  0  0
    0.5866    0.1141    1.2075 H   0  0  0  0  0  0
    4.6108    0.8810    4.6255 H   0  0  0  0  0  0
    3.8930   -1.2651    4.1982 H   0  0  0  0  0  0
    4.1535    3.2933    4.3092 H   0  0  0  0  0  0
    2.4293    4.9901    3.6967 H   0  0  0  0  0  0
    2.9338    4.8477    2.0392 H   0  0  0  0  0  0
    0.6894    4.5001    1.2340 H   0  0  0  0  0  0
   -0.4304    6.3998    2.0290 H   0  0  0  0  0  0
    0.5466    6.4980    3.3511 H   0  0  0  0  0  0
    0.4993    6.2214    2.3807 N   0  3  0  0  0  0
    1.1763    6.7397    1.8404 H   0  0  0  0  0  0
    0.1000    3.3866    4.0944 O   0  5  0  0  0  0
  1  2  1  0  0  0
  1  3  2  0  0  0
  1  4  1  0  0  0
  2  5  2  0  0  0
  2  6  1  0  0  0
  3  7  1  0  0  0
  3 13  1  0  0  0
  4 14  1  0  0  0
  5  8  1  0  0  0
  5 15  1  0  0  0
  6 16  1  0  0  0
  7  9  1  0  0  0
  7  8  2  0  0  0
  8 17  1  0  0  0
  9 10  1  0  0  0
  9 18  1  0  0  0
  9 19  1  0  0  0
 10 11  1  0  0  0
 10 20  1  0  0  0
 10 23  1  0  0  0
 11 12  2  0  0  0
 11 25  1  0  0  0
 21 23  1  0  0  0
 22 23  1  0  0  0
 23 24  1  0  0  0
M  CHG  2  23   1  25  -1
M  END
> <i_ionizer_Ion_state_n>
12

> <i_ionizer_Tot_Q>
0

> <s_ionizer_Ion_centers>
23_25

> <s_ionizer_Ion_types>
N5_OM

> <s_ionizer_Ion_ctrs_in>
12_13

> <r_ionizer_Ionization_penalty>
0.0019639

> <r_ionizer_Ionization_penalty_charging>
0.000779521

> <r_ionizer_Ionization_penalty_neutral>
0.00118438

> <s_st_Chirality_1>
10_S_23_11_9_20

> <i_mmod_Serial_Number-OPLS-2005>
204

> <i_i_glide_lignum>
202

> <r_i_docking_score>
-6.50843

> <r_i_glide_gscore>
-6.50843

> <r_i_glide_lipo>
-0.668927

> <r_i_glide_hbond>
-1.85

> <r_i_glide_metal>
0

> <r_i_glide_eburp>
-2.694

> <r_i_glide_evdw>
-15.7358

> <r_i_glide_ecoul>
-9.99915

> <r_i_glide_erotb>
0.955565

> <r_i_glide_esite>
0.00770152

> <r_i_glide_emodel>
-51.764

> <r_i_glide_energy>
-25.7349

> <r_i_glide_einternal>
3.05152

> <i_i_glide_confnum>
2

> <i_i_glide_posenum>
421

$$$$
C02470
                    3D
 Structure written by MMmdl.
 21 22  0  0  1  0            999 V2000
    2.0645    1.7574    3.5007 C   0  0  0  0  0  0
    3.3061    2.4558    3.4614 C   0  0  0  0  0  0
    0.8929    2.3898    3.2553 N   0  0  0  0  0  0
    2.0813    0.3721    3.8053 C   0  0  0  0  0  0
    3.2952    3.8375    3.1582 C   0  0  0  0  0  0
    4.5186    1.7762    3.7209 C   0  0  0  0  0  0
    0.8788    3.7113    2.9650 C   0  0  0  0  0  0
    3.2941   -0.2966    4.0624 C   0  0  0  0  0  0
    0.9171   -0.3451    3.8558 O   0  0  0  0  0  0
    2.0667    4.4709    2.9074 C   0  0  0  0  0  0
    4.4440    4.5754    3.1018 O   0  0  0  0  0  0
    4.5110    0.4034    4.0205 C   0  0  0  0  0  0
   -0.4545    4.3630    2.7006 C   0  0  0  0  0  0
   -1.5000    3.7980    3.0952 O   0  0  0  0  0  0
    5.4657    2.2935    3.6943 H   0  0  0  0  0  0
    3.2953   -1.3519    4.2933 H   0  0  0  0  0  0
    1.0311   -1.2311    4.1619 H   0  0  0  0  0  0
    2.0388    5.5257    2.6742 H   0  0  0  0  0  0
    4.3013    5.4634    2.8150 H   0  0  0  0  0  0
    5.4391   -0.1130    4.2182 H   0  0  0  0  0  0
   -0.4794    5.4563    2.0909 O   0  5  0  0  0  0
  1  2  2  0  0  0
  1  3  1  0  0  0
  1  4  1  0  0  0
  2  5  1  0  0  0
  2  6  1  0  0  0
  3  7  2  0  0  0
  4  8  2  0  0  0
  4  9  1  0  0  0
  5 10  2  0  0  0
  5 11  1  0  0  0
  6 12  2  0  0  0
  6 15  1  0  0  0
  7 13  1  0  0  0
  7 10  1  0  0  0
  8 12  1  0  0  0
  8 16  1  0  0  0
  9 17  1  0  0  0
 10 18  1  0  0  0
 11 19  1  0  0  0
 12 20  1  0  0  0
 13 14  2  0  0  0
 13 21  1  0  0  0
M  CHG  1  21  -1
M  END
> <i_ionizer_Ion_state_n>
4

> <i_ionizer_Tot_Q>
-1

> <s_ionizer_Ion_centers>
21

> <s_ionizer_Ion_types>
OM

> <s_ionizer_Ion_ctrs_in>
14

> <r_ionizer_Ionization_penalty>
0.0196303

> <r_ionizer_Ionization_penalty_charging>
0.00059219

> <r_ionizer_Ionization_penalty_neutral>
0.0190381

> <i_mmod_Serial_Number-OPLS-2005>
492

> <i_i_glide_lignum>
487

> <r_i_docking_score>
-6.50708

> <r_i_glide_gscore>
-6.50708

> <r_i_glide_lipo>
-0.857654

> <r_i_glide_hbond>
-0.919364

> <r_i_glide_metal>
0

> <r_i_glide_eburp>
-2.24118

> <r_i_glide_evdw>
-22.8331

> <r_i_glide_ecoul>
-6.2425

> <r_i_glide_erotb>
0

> <r_i_glide_esite>
-0.0379775

> <r_i_glide_emodel>
-55.3123

> <r_i_glide_energy>
-29.0756

> <r_i_glide_einternal>
0.427479

> <i_i_glide_confnum>
1

> <i_i_glide_posenum>
146

$$$$
C00664
                    3D
 Structure written by MMmdl.
 57 59  0  0  1  0            999 V2000
   -4.8800   10.6790    6.6472 C   0  0  0  0  0  0
   -4.6615   10.7337    5.2664 N   0  0  0  0  0  0
   -3.8198   10.7705    7.4828 C   0  0  0  0  0  0
   -6.2238   10.5034    7.2210 C   0  0  0  0  0  0
   -3.3390   10.3332    4.6963 C   0  0  1  0  0  0
   -5.5997   11.2630    4.4409 C   0  0  0  0  0  0
   -2.5228   10.8510    7.0344 N   0  0  0  0  0  0
   -3.9431   10.7628    8.8736 N   0  0  0  0  0  0
   -6.2617   10.5195    8.5752 N   0  0  0  0  0  0
   -7.2522   10.3217    6.5725 O   0  0  0  0  0  0
   -2.1626   10.3447    5.7228 C   0  0  0  0  0  0
   -3.4597    8.9921    3.9220 C   0  0  0  0  0  0
   -5.1272   10.6477    9.3857 C   0  0  0  0  0  0
   -2.7003    8.9793    2.6774 N   0  0  0  0  0  0
   -5.4197   10.6301   10.7331 N   0  0  0  0  0  0
   -1.6901    8.1645    2.3110 C   0  0  0  0  0  0
   -1.2031    7.2349    3.2522 C   0  0  0  0  0  0
   -1.1053    8.2109    1.0262 C   0  0  0  0  0  0
   -0.1536    6.3584    2.9153 C   0  0  0  0  0  0
   -0.0556    7.3353    0.6880 C   0  0  0  0  0  0
    0.4358    6.4057    1.6333 C   0  0  0  0  0  0
    1.5400    5.4499    1.2799 C   0  0  0  0  0  0
    1.6353    4.3644    2.0634 N   0  0  0  0  0  0
    2.2595    5.6507    0.3010 O   0  0  0  0  0  0
    2.3355    3.1250    1.7392 C   0  0  2  0  0  0
    1.6098    1.9063    2.3578 C   0  0  0  0  0  0
    3.8279    3.2637    2.0687 C   0  0  0  0  0  0
    2.1478    0.5272    1.9157 C   0  0  0  0  0  0
    4.1317    3.7029    3.1996 O   0  0  0  0  0  0
    1.2472   -0.6451    2.3199 C   0  0  0  0  0  0
    1.7077   -1.5008    3.1082 O   0  0  0  0  0  0
   -3.0934   11.1273    3.9900 H   0  0  0  0  0  0
   -6.4776   11.7453    4.8497 H   0  0  0  0  0  0
   -1.7866   10.8818    7.7260 H   0  0  0  0  0  0
   -7.1633   10.4058    9.0140 H   0  0  0  0  0  0
   -1.7598    9.3444    5.8792 H   0  0  0  0  0  0
   -1.3384   10.9465    5.3383 H   0  0  0  0  0  0
   -3.1679    8.1371    4.5320 H   0  0  0  0  0  0
   -4.5005    8.8024    3.6560 H   0  0  0  0  0  0
   -6.2351   11.7207    2.5489 H   0  0  0  0  0  0
   -3.0245    9.6182    1.9650 H   0  0  0  0  0  0
   -6.3514   10.5382   11.1110 H   0  0  0  0  0  0
   -4.7122   10.7093   11.4495 H   0  0  0  0  0  0
   -1.6353    7.1825    4.2410 H   0  0  0  0  0  0
   -1.4425    8.9179    0.2859 H   0  0  0  0  0  0
    0.1993    5.6506    3.6517 H   0  0  0  0  0  0
    0.3649    7.3865   -0.3062 H   0  0  0  0  0  0
    1.2029    4.3918    2.9755 H   0  0  0  0  0  0
    2.2925    2.9972    0.6555 H   0  0  0  0  0  0
    1.6786    1.9711    3.4450 H   0  0  0  0  0  0
    0.5469    1.9742    2.1203 H   0  0  0  0  0  0
    2.2591    0.5127    0.8307 H   0  0  0  0  0  0
    3.1384    0.3508    2.3354 H   0  0  0  0  0  0
   -5.5025   11.2949    3.0996 N   0  3  0  0  0  0
   -4.6945   10.8981    2.6391 H   0  0  0  0  0  0
    4.6413    2.9128    1.1845 O   0  5  0  0  0  0
    0.1031   -0.6724    1.8160 O   0  5  0  0  0  0
  1  2  1  0  0  0
  1  3  2  0  0  0
  1  4  1  0  0  0
  2  5  1  0  0  0
  2  6  1  0  0  0
  3  7  1  0  0  0
  3  8  1  0  0  0
  4  9  1  0  0  0
  4 10  2  0  0  0
  5 11  1  0  0  0
  5 12  1  0  0  0
  5 32  1  0  0  0
  6 33  1  0  0  0
  6 54  2  0  0  0
  7 11  1  0  0  0
  7 34  1  0  0  0
  8 13  2  0  0  0
  9 13  1  0  0  0
  9 35  1  0  0  0
 11 36  1  0  0  0
 11 37  1  0  0  0
 12 14  1  0  0  0
 12 38  1  0  0  0
 12 39  1  0  0  0
 13 15  1  0  0  0
 14 16  1  0  0  0
 14 41  1  0  0  0
 15 42  1  0  0  0
 15 43  1  0  0  0
 16 17  2  0  0  0
 16 18  1  0  0  0
 17 19  1  0  0  0
 17 44  1  0  0  0
 18 20  2  0  0  0
 18 45  1  0  0  0
 19 21  2  0  0  0
 19 46  1  0  0  0
 20 21  1  0  0  0
 20 47  1  0  0  0
 21 22  1  0  0  0
 22 23  1  0  0  0
 22 24  2  0  0  0
 23 25  1  0  0  0
 23 48  1  0  0  0
 25 26  1  0  0  0
 25 27  1  0  0  0
 25 49  1  0  0  0
 26 28  1  0  0  0
 26 50  1  0  0  0
 26 51  1  0  0  0
 27 29  2  0  0  0
 27 56  1  0  0  0
 28 30  1  0  0  0
 28 52  1  0  0  0
 28 53  1  0  0  0
 30 31  2  0  0  0
 30 57  1  0  0  0
 40 54  1  0  0  0
 54 55  1  0  0  0
M  CHG  3  54   1  56  -1  57  -1
M  END
> <i_ionizer_Ion_state_n>
13

> <i_ionizer_Tot_Q>
-1

> <s_ionizer_Ion_centers>
54_56_57

> <s_ionizer_Ion_types>
N4_OM_OM

> <s_ionizer_Ion_ctrs_in>
13_30_33

> <r_ionizer_Ionization_penalty>
0.00306095

> <r_ionizer_Ionization_penalty_charging>
0.0011903

> <r_ionizer_Ionization_penalty_neutral>
0.00187065

> <s_st_Chirality_1>
5_R_2_11_12_32

> <s_st_Chirality_2>
25_R_23_27_26_49

> <i_mmod_Serial_Number-OPLS-2005>
311

> <i_i_glide_lignum>
309

> <r_i_docking_score>
-6.50273

> <r_i_glide_gscore>
-6.50273

> <r_i_glide_lipo>
-1.0392

> <r_i_glide_hbond>
-1.55813

> <r_i_glide_metal>
0

> <r_i_glide_eburp>
-0.21624

> <r_i_glide_evdw>
-34.3054

> <r_i_glide_ecoul>
-24.9413

> <r_i_glide_erotb>
0.831426

> <r_i_glide_esite>
0.717975

> <r_i_glide_emodel>
-134.356

> <r_i_glide_energy>
-59.2467

> <r_i_glide_einternal>
8.56276

> <i_i_glide_confnum>
79

> <i_i_glide_posenum>
506

$$$$
C00181
                    3D
 Structure written by MMmdl.
 20 20  0  0  1  0            999 V2000
    2.3782   -0.1575    2.3385 C   0  0  2  0  0  0
    3.1342   -0.2111    0.9920 C   0  0  2  0  0  0
    3.3058   -0.5584    3.4971 C   0  0  1  0  0  0
    1.3190   -1.0957    2.3040 O   0  0  0  0  0  0
    4.4460    0.6005    1.1088 C   0  0  1  0  0  0
    2.3011    0.3533   -0.0028 O   0  0  0  0  0  0
    4.5986    0.2677    3.4408 C   0  0  0  0  0  0
    2.6631   -0.3006    4.7305 O   0  0  0  0  0  0
    5.2053    0.1007    2.1667 O   0  0  0  0  0  0
    5.1679    0.5000   -0.0967 O   0  0  0  0  0  0
    1.9780    0.8442    2.5067 H   0  0  0  0  0  0
    3.3842   -1.2403    0.7284 H   0  0  0  0  0  0
    3.5534   -1.6195    3.4352 H   0  0  0  0  0  0
    0.8928   -1.0821    3.1479 H   0  0  0  0  0  0
    4.2487    1.6615    1.2751 H   0  0  0  0  0  0
    2.7376    0.2580   -0.8359 H   0  0  0  0  0  0
    4.4041    1.3257    3.6264 H   0  0  0  0  0  0
    5.2964   -0.0677    4.2087 H   0  0  0  0  0  0
    3.1572   -0.7169    5.4205 H   0  0  0  0  0  0
    4.9007   -0.2972   -0.5282 H   0  0  0  0  0  0
  1  2  1  0  0  0
  1  3  1  0  0  0
  1  4  1  0  0  0
  1 11  1  0  0  0
  2  5  1  0  0  0
  2  6  1  0  0  0
  2 12  1  0  0  0
  3  7  1  0  0  0
  3  8  1  0  0  0
  3 13  1  0  0  0
  4 14  1  0  0  0
  5  9  1  0  0  0
  5 10  1  0  0  0
  5 15  1  0  0  0
  6 16  1  0  0  0
  7  9  1  0  0  0
  7 17  1  0  0  0
  7 18  1  0  0  0
  8 19  1  0  0  0
 10 20  1  0  0  0
M  END
> <i_ionizer_Ion_state_n>
0

> <i_ionizer_Tot_Q>
0

> <s_ionizer_Ion_centers>


> <s_ionizer_Ion_types>


> <s_ionizer_Ion_ctrs_in>


> <r_ionizer_Ionization_penalty>
0

> <r_ionizer_Ionization_penalty_charging>
0

> <r_ionizer_Ionization_penalty_neutral>
0

> <s_st_Chirality_1>
1_S_4_2_3_11

> <s_st_Chirality_2>
2_R_6_5_1_12

> <s_st_Chirality_3>
3_R_8_1_7_13

> <s_st_Chirality_4>
5_R_9_10_2_15

> <i_mmod_Serial_Number-OPLS-2005>
127

> <i_i_glide_lignum>
125

> <r_i_docking_score>
-6.50216

> <r_i_glide_gscore>
-6.50216

> <r_i_glide_lipo>
-0.423533

> <r_i_glide_hbond>
-0.832397

> <r_i_glide_metal>
0

> <r_i_glide_eburp>
-2.5

> <r_i_glide_evdw>
-17.594

> <r_i_glide_ecoul>
-10.7273

> <r_i_glide_erotb>
0

> <r_i_glide_esite>
-0.265978

> <r_i_glide_emodel>
-36.0638

> <r_i_glide_energy>
-28.3214

> <r_i_glide_einternal>
2.02093

> <i_i_glide_confnum>
1

> <i_i_glide_posenum>
989

$$$$
C03785
                    3D
 Structure written by MMmdl.
 30 30  0  0  1  0            999 V2000
    2.1372    1.1008    2.9736 C   0  0  1  0  0  0
    3.0564    1.3456    1.9535 O   0  0  0  0  0  0
    2.9216    0.4833    4.1251 C   0  0  2  0  0  0
    1.5025    2.4450    3.3948 C   0  0  0  0  0  0
    1.1285    0.2043    2.5570 O   0  0  0  0  0  0
    4.4093    1.1620    2.3924 C   0  0  1  0  0  0
    4.3245    1.0100    3.9187 C   0  0  2  0  0  0
    2.8431   -0.9324    4.1778 O   0  0  0  0  0  0
    0.8620    3.0790    2.2981 O   0  0  0  0  0  0
    5.2511    0.0871    1.6796 C   0  0  0  0  0  0
    5.2995    0.1027    4.4075 O   0  0  0  0  0  0
   -0.0261    4.5840    2.6905 P   0  0  0  0  0  0
    5.7591    0.5949    0.4568 O   0  0  0  0  0  0
    0.3622    5.5129    1.5184 O   0  0  0  0  0  0
    7.3524   -0.0488   -0.0442 P   0  0  0  0  0  0
    8.0884    1.2307   -0.4999 O   0  0  0  0  0  0
    2.5377    0.8958    5.0574 H   0  0  0  0  0  0
    0.7757    2.2427    4.1829 H   0  0  0  0  0  0
    2.2603    3.0978    3.8285 H   0  0  0  0  0  0
    1.4441   -0.6810    2.6711 H   0  0  0  0  0  0
    4.8821    2.1288    2.2134 H   0  0  0  0  0  0
    4.4667    1.9673    4.4212 H   0  0  0  0  0  0
    3.4812   -1.2405    4.8014 H   0  0  0  0  0  0
    6.0317   -0.3142    2.3266 H   0  0  0  0  0  0
    4.6108   -0.7569    1.4240 H   0  0  0  0  0  0
    4.8443   -0.5576    4.9280 H   0  0  0  0  0  0
   -1.4908    4.0919    2.7062 O   0  5  0  0  0  0
    0.5751    4.9498    4.0655 O   0  5  0  0  0  0
    7.8606   -0.6918    1.2653 O   0  5  0  0  0  0
    6.9499   -1.0297   -1.1669 O   0  5  0  0  0  0
  1  2  1  0  0  0
  1  3  1  0  0  0
  1  4  1  0  0  0
  1  5  1  0  0  0
  2  6  1  0  0  0
  3  7  1  0  0  0
  3  8  1  0  0  0
  3 17  1  0  0  0
  4  9  1  0  0  0
  4 18  1  0  0  0
  4 19  1  0  0  0
  5 20  1  0  0  0
  6 10  1  0  0  0
  6  7  1  0  0  0
  6 21  1  0  0  0
  7 11  1  0  0  0
  7 22  1  0  0  0
  8 23  1  0  0  0
  9 12  1  0  0  0
 10 13  1  0  0  0
 10 24  1  0  0  0
 10 25  1  0  0  0
 11 26  1  0  0  0
 12 14  2  0  0  0
 12 27  1  0  0  0
 12 28  1  0  0  0
 13 15  1  0  0  0
 15 16  2  0  0  0
 15 29  1  0  0  0
 15 30  1  0  0  0
M  CHG  4  27  -1  28  -1  29  -1  30  -1
M  END
> <i_ionizer_Ion_state_n>
15

> <i_ionizer_Tot_Q>
-4

> <s_ionizer_Ion_centers>
27_28_29_30

> <s_ionizer_Ion_types>
OM_OM_OM_OM

> <s_ionizer_Ion_ctrs_in>
14_15_18_19

> <r_ionizer_Ionization_penalty>
2.98356e-05

> <r_ionizer_Ionization_penalty_charging>
2.98356e-05

> <r_ionizer_Ionization_penalty_neutral>
0

> <s_st_Chirality_1>
3_S_8_1_7_17

> <s_st_Chirality_2>
6_R_2_7_10_21

> <s_st_Chirality_3>
7_S_11_3_6_22

> <s_st_Chirality_4>
1_R_2_5_3_4

> <i_mmod_Serial_Number-OPLS-2005>
567

> <i_i_glide_lignum>
561

> <r_i_docking_score>
-6.50165

> <r_i_glide_gscore>
-6.50165

> <r_i_glide_lipo>
-0.456672

> <r_i_glide_hbond>
-1.9729

> <r_i_glide_metal>
0

> <r_i_glide_eburp>
-1.24177

> <r_i_glide_evdw>
-25.188

> <r_i_glide_ecoul>
-12.1956

> <r_i_glide_erotb>
0.764176

> <r_i_glide_esite>
-0.359892

> <r_i_glide_emodel>
-83.8856

> <r_i_glide_energy>
-37.3836

> <r_i_glide_einternal>
13.2989

> <i_i_glide_confnum>
124

> <i_i_glide_posenum>
335

$$$$
C00628
                    3D
 Structure written by MMmdl.
 16 16  0  0  1  0            999 V2000
    1.7118    2.7962    2.9377 C   0  0  0  0  0  0
    2.7426    2.8548    1.9529 C   0  0  0  0  0  0
    1.7249    1.7160    3.8554 C   0  0  0  0  0  0
    0.6087    3.8280    3.0498 C   0  0  0  0  0  0
    3.7378    1.8563    1.9099 C   0  0  0  0  0  0
    2.8273    3.8504    1.0194 O   0  0  0  0  0  0
    2.7220    0.7242    3.8049 C   0  0  0  0  0  0
   -0.2994    3.6976    3.9000 O   0  0  0  0  0  0
    3.7312    0.7939    2.8300 C   0  0  0  0  0  0
    2.7075   -0.3036    4.7024 O   0  0  0  0  0  0
    0.9617    1.6358    4.6162 H   0  0  0  0  0  0
    4.5176    1.9018    1.1638 H   0  0  0  0  0  0
    3.5558    3.7502    0.4275 H   0  0  0  0  0  0
    4.5009    0.0376    2.7831 H   0  0  0  0  0  0
    3.5118   -0.7987    4.7137 H   0  0  0  0  0  0
    0.6304    4.8095    2.2728 O   0  5  0  0  0  0
  1  2  1  0  0  0
  1  3  2  0  0  0
  1  4  1  0  0  0
  2  5  2  0  0  0
  2  6  1  0  0  0
  3  7  1  0  0  0
  3 11  1  0  0  0
  4  8  2  0  0  0
  4 16  1  0  0  0
  5  9  1  0  0  0
  5 12  1  0  0  0
  6 13  1  0  0  0
  7 10  1  0  0  0
  7  9  2  0  0  0
  9 14  1  0  0  0
 10 15  1  0  0  0
M  CHG  1  16  -1
M  END
> <i_ionizer_Ion_state_n>
2

> <i_ionizer_Tot_Q>
-1

> <s_ionizer_Ion_centers>
16

> <s_ionizer_Ion_types>
OM

> <s_ionizer_Ion_ctrs_in>
8

> <r_ionizer_Ionization_penalty>
0.00177657

> <r_ionizer_Ionization_penalty_charging>
0.00059219

> <r_ionizer_Ionization_penalty_neutral>
0.00118438

> <i_mmod_Serial_Number-OPLS-2005>
298

> <i_i_glide_lignum>
296

> <r_i_docking_score>
-6.50127

> <r_i_glide_gscore>
-6.50127

> <r_i_glide_lipo>
-0.493976

> <r_i_glide_hbond>
-1.07646

> <r_i_glide_metal>
0

> <r_i_glide_eburp>
-2.5

> <r_i_glide_evdw>
-16.0057

> <r_i_glide_ecoul>
-7.45963

> <r_i_glide_erotb>
0

> <r_i_glide_esite>
-0.404421

> <r_i_glide_emodel>
-47.2744

> <r_i_glide_energy>
-23.4653

> <r_i_glide_einternal>
0.238064

> <i_i_glide_confnum>
1

> <i_i_glide_posenum>
74

$$$$
C07097
                    3D
 Structure written by MMmdl.
 14 14  0  0  1  0            999 V2000
    2.6697    2.3995    3.0937 C   0  0  0  0  0  0
    3.8287    3.0975    3.4999 C   0  0  0  0  0  0
    2.4823    1.0581    3.4937 C   0  0  0  0  0  0
    1.7306    3.0169    2.3160 O   0  0  0  0  0  0
    4.7924    2.4543    4.3015 C   0  0  0  0  0  0
    4.0831    4.7394    3.0248 Cl  0  0  0  0  0  0
    3.4489    0.4194    4.2953 C   0  0  0  0  0  0
    1.0719    0.1860    3.0079 Cl  0  0  0  0  0  0
    4.6040    1.1167    4.6995 C   0  0  0  0  0  0
    5.5414    0.5000    5.4759 O   0  0  0  0  0  0
    1.9926    3.8844    2.0467 H   0  0  0  0  0  0
    5.6783    2.9893    4.6115 H   0  0  0  0  0  0
    3.3002   -0.6069    4.5982 H   0  0  0  0  0  0
    5.3639   -0.4164    5.6231 H   0  0  0  0  0  0
  1  2  1  0  0  0
  1  3  2  0  0  0
  1  4  1  0  0  0
  2  5  2  0  0  0
  2  6  1  0  0  0
  3  7  1  0  0  0
  3  8  1  0  0  0
  4 11  1  0  0  0
  5  9  1  0  0  0
  5 12  1  0  0  0
  7  9  2  0  0  0
  7 13  1  0  0  0
  9 10  1  0  0  0
 10 14  1  0  0  0
M  END
> <i_ionizer_Ion_state_n>
0

> <i_ionizer_Tot_Q>
0

> <s_ionizer_Ion_centers>


> <s_ionizer_Ion_types>


> <s_ionizer_Ion_ctrs_in>


> <r_ionizer_Ionization_penalty>
0.00118438

> <r_ionizer_Ionization_penalty_charging>
0

> <r_ionizer_Ionization_penalty_neutral>
0.00118438

> <i_mmod_Serial_Number-OPLS-2005>
895

> <i_i_glide_lignum>
883

> <r_i_docking_score>
-6.49731

> <r_i_glide_gscore>
-6.49731

> <r_i_glide_lipo>
-0.776932

> <r_i_glide_hbond>
-0.45

> <r_i_glide_metal>
0

> <r_i_glide_eburp>
-2.43179

> <r_i_glide_evdw>
-21.4318

> <r_i_glide_ecoul>
-5.60369

> <r_i_glide_erotb>
0

> <r_i_glide_esite>
-0.563673

> <r_i_glide_emodel>
-34.0231

> <r_i_glide_energy>
-27.0355

> <r_i_glide_einternal>
0.0542035

> <i_i_glide_confnum>
1

> <i_i_glide_posenum>
908

$$$$
C11422
                    3D
 Structure written by MMmdl.
 24 26  0  0  1  0            999 V2000
    3.5417    3.9856    1.4682 C   0  0  0  0  0  0
    4.0231    2.7488    1.9243 C   0  0  0  0  0  0
    1.8861    2.3234    3.0617 C   0  0  0  0  0  0
    3.2060    1.9195    2.7156 C   0  0  0  0  0  0
    3.7198    0.6826    3.1580 C   0  0  0  0  0  0
    2.9318   -0.1705    3.9495 C   0  0  0  0  0  0
    1.6265    0.2132    4.3002 C   0  0  0  0  0  0
    1.1081    1.4467    3.8617 C   0  0  0  0  0  0
    2.2391    4.4038    1.7993 C   0  0  0  0  0  0
    1.3968    3.5806    2.5980 C   0  0  0  0  0  0
    0.0934    4.0537    2.9001 C   0  0  0  0  0  0
   -0.3537    5.3009    2.4237 C   0  0  0  0  0  0
    0.4907    6.1015    1.6362 C   0  0  0  0  0  0
    1.7855    5.6524    1.3250 C   0  0  0  0  0  0
    4.1795    4.6122    0.8616 H   0  0  0  0  0  0
    5.0249    2.4402    1.6627 H   0  0  0  0  0  0
    4.7228    0.3816    2.8918 H   0  0  0  0  0  0
    3.3280   -1.1170    4.2868 H   0  0  0  0  0  0
    1.0188   -0.4405    4.9085 H   0  0  0  0  0  0
    0.1016    1.6863    4.1621 H   0  0  0  0  0  0
   -0.5984    3.4847    3.4988 H   0  0  0  0  0  0
   -1.3493    5.6437    2.6644 H   0  0  0  0  0  0
    0.1462    7.0580    1.2716 H   0  0  0  0  0  0
    2.4298    6.2728    0.7189 H   0  0  0  0  0  0
  1  9  1  0  0  0
  1  2  2  0  0  0
  1 15  1  0  0  0
  2  4  1  0  0  0
  2 16  1  0  0  0
  3  8  1  0  0  0
  3 10  1  0  0  0
  3  4  2  0  0  0
  4  5  1  0  0  0
  5  6  2  0  0  0
  5 17  1  0  0  0
  6  7  1  0  0  0
  6 18  1  0  0  0
  7  8  2  0  0  0
  7 19  1  0  0  0
  8 20  1  0  0  0
  9 10  2  0  0  0
  9 14  1  0  0  0
 10 11  1  0  0  0
 11 12  2  0  0  0
 11 21  1  0  0  0
 12 13  1  0  0  0
 12 22  1  0  0  0
 13 14  2  0  0  0
 13 23  1  0  0  0
 14 24  1  0  0  0
M  END
> <i_ionizer_Ion_state_n>
0

> <i_ionizer_Tot_Q>
0

> <s_ionizer_Ion_centers>


> <s_ionizer_Ion_types>


> <s_ionizer_Ion_ctrs_in>


> <r_ionizer_Ionization_penalty>
0

> <r_ionizer_Ionization_penalty_charging>
0

> <r_ionizer_Ionization_penalty_neutral>
0

> <i_mmod_Serial_Number-OPLS-2005>
934

> <i_i_glide_lignum>
917

> <r_i_docking_score>
-6.4964

> <r_i_glide_gscore>
-6.4964

> <r_i_glide_lipo>
-1.28661

> <r_i_glide_hbond>
0

> <r_i_glide_metal>
0

> <r_i_glide_eburp>
-2.43761

> <r_i_glide_evdw>
-24.645

> <r_i_glide_ecoul>
-0.150768

> <r_i_glide_erotb>
0

> <r_i_glide_esite>
-0.785507

> <r_i_glide_emodel>
-31.1298

> <r_i_glide_energy>
-24.7958

> <r_i_glide_einternal>
0

> <i_i_glide_confnum>
1

> <i_i_glide_posenum>
904

$$$$
C05378
                    3D
 Structure written by MMmdl.
 30 30  0  0  1  0            999 V2000
    1.7278    0.9758    2.8455 C   0  0  1  0  0  0
    2.8251    1.6238    2.2848 O   0  0  0  0  0  0
    2.2561    0.4921    4.2048 C   0  0  2  0  0  0
    0.5731    1.9909    2.9211 C   0  0  0  0  0  0
    1.3298   -0.1192    2.0476 O   0  0  0  0  0  0
    4.0324    0.9414    2.6224 C   0  0  1  0  0  0
    3.6956    0.1075    3.8755 C   0  0  1  0  0  0
    1.5396   -0.6131    4.7287 O   0  0  0  0  0  0
    0.9143    3.1820    2.2302 O   0  0  0  0  0  0
    4.5151    0.1329    1.3980 C   0  0  0  0  0  0
    4.5546    0.4532    4.9436 O   0  0  0  0  0  0
   -0.0197    4.6351    2.6983 P   0  0  0  0  0  0
    5.8680   -0.2901    1.5026 O   0  0  0  0  0  0
    0.3308    5.6274    1.5676 O   0  0  0  0  0  0
    6.9580    0.1013    0.1320 P   0  0  0  0  0  0
    8.3510   -0.1794    0.7387 O   0  0  0  0  0  0
    2.2332    1.3320    4.9000 H   0  0  0  0  0  0
   -0.3129    1.5310    2.4807 H   0  0  0  0  0  0
    0.3384    2.2089    3.9633 H   0  0  0  0  0  0
    2.0646   -0.7148    2.0269 H   0  0  0  0  0  0
    4.7622    1.7220    2.8427 H   0  0  0  0  0  0
    3.7788   -0.9594    3.6654 H   0  0  0  0  0  0
    1.9172   -0.8306    5.5670 H   0  0  0  0  0  0
    3.8509   -0.6999    1.1668 H   0  0  0  0  0  0
    4.4834    0.7790    0.5208 H   0  0  0  0  0  0
    4.7035   -0.3389    5.4551 H   0  0  0  0  0  0
   -1.4673    4.0944    2.7009 O   0  5  0  0  0  0
    0.5809    4.9547    4.0850 O   0  5  0  0  0  0
    6.4896   -0.8796   -0.9657 O   0  5  0  0  0  0
    6.6217    1.5887   -0.1116 O   0  5  0  0  0  0
  1  2  1  0  0  0
  1  3  1  0  0  0
  1  4  1  0  0  0
  1  5  1  0  0  0
  2  6  1  0  0  0
  3  7  1  0  0  0
  3  8  1  0  0  0
  3 17  1  0  0  0
  4  9  1  0  0  0
  4 18  1  0  0  0
  4 19  1  0  0  0
  5 20  1  0  0  0
  6 10  1  0  0  0
  6  7  1  0  0  0
  6 21  1  0  0  0
  7 11  1  0  0  0
  7 22  1  0  0  0
  8 23  1  0  0  0
  9 12  1  0  0  0
 10 13  1  0  0  0
 10 24  1  0  0  0
 10 25  1  0  0  0
 11 26  1  0  0  0
 12 14  2  0  0  0
 12 27  1  0  0  0
 12 28  1  0  0  0
 13 15  1  0  0  0
 15 16  2  0  0  0
 15 29  1  0  0  0
 15 30  1  0  0  0
M  CHG  4  27  -1  28  -1  29  -1  30  -1
M  END
> <i_ionizer_Ion_state_n>
15

> <i_ionizer_Tot_Q>
-4

> <s_ionizer_Ion_centers>
27_28_29_30

> <s_ionizer_Ion_types>
OM_OM_OM_OM

> <s_ionizer_Ion_ctrs_in>
14_15_18_19

> <r_ionizer_Ionization_penalty>
2.98356e-05

> <r_ionizer_Ionization_penalty_charging>
2.98356e-05

> <r_ionizer_Ionization_penalty_neutral>
0

> <s_st_Chirality_1>
1_R_2_5_3_4

> <s_st_Chirality_2>
3_S_8_1_7_17

> <s_st_Chirality_3>
6_R_2_7_10_21

> <s_st_Chirality_4>
7_R_11_3_6_22

> <i_mmod_Serial_Number-OPLS-2005>
677

> <i_i_glide_lignum>
670

> <r_i_docking_score>
-6.48632

> <r_i_glide_gscore>
-6.48632

> <r_i_glide_lipo>
-0.481397

> <r_i_glide_hbond>
-1.73603

> <r_i_glide_metal>
0

> <r_i_glide_eburp>
-1.24177

> <r_i_glide_evdw>
-27.2452

> <r_i_glide_ecoul>
-12.2056

> <r_i_glide_erotb>
0.764176

> <r_i_glide_esite>
-0.391123

> <r_i_glide_emodel>
-86.9574

> <r_i_glide_energy>
-39.4508

> <r_i_glide_einternal>
12.879

> <i_i_glide_confnum>
34

> <i_i_glide_posenum>
974

$$$$
C00647
                    3D
 Structure written by MMmdl.
 28 28  0  0  1  0            999 V2000
    2.6214    1.6154    2.1477 C   0  0  0  0  0  0
    3.4841    1.0060    3.1002 C   0  0  0  0  0  0
    2.9866    1.5512    0.7869 C   0  0  0  0  0  0
    1.3227    2.3334    2.4971 C   0  0  0  0  0  0
    4.6584    0.3709    2.6253 C   0  0  0  0  0  0
    3.2199    1.0396    4.6017 C   0  0  0  0  0  0
    4.0985    0.9393    0.3326 N   0  0  0  0  0  0
    1.2346    3.6392    1.9494 O   0  0  0  0  0  0
    4.9163    0.3636    1.2360 C   0  0  0  0  0  0
    5.5384   -0.2156    3.4940 O   0  0  0  0  0  0
    0.0885    4.7794    2.7264 P   0  0  0  0  0  0
    6.1578   -0.3006    0.6707 C   0  0  0  0  0  0
   -1.1044    3.8720    3.1012 O   0  0  0  0  0  0
    2.3601    2.0035    0.0321 H   0  0  0  0  0  0
    0.5126    1.7576    2.0481 H   0  0  0  0  0  0
    1.0917    2.3194    3.5578 H   0  0  0  0  0  0
    4.0538    1.4370    5.1723 H   0  0  0  0  0  0
    2.3808    1.7014    4.8170 H   0  0  0  0  0  0
    5.1206   -0.5709    4.2642 H   0  0  0  0  0  0
    2.8378   -0.3110    6.0974 H   0  0  0  0  0  0
    2.0331   -0.6201    4.6786 H   0  0  0  0  0  0
    6.1939   -0.2216   -0.4167 H   0  0  0  0  0  0
    7.0552    0.1701    1.0726 H   0  0  0  0  0  0
    6.1740   -1.3588    0.9321 H   0  0  0  0  0  0
    2.9006   -0.3100    5.0905 N   0  3  0  0  0  0
    3.6475   -0.9388    4.7972 H   0  0  0  0  0  0
    0.9075    5.2986    3.9296 O   0  5  0  0  0  0
   -0.1637    5.7954    1.5925 O   0  5  0  0  0  0
  1  2  1  0  0  0
  1  3  2  0  0  0
  1  4  1  0  0  0
  2  5  2  0  0  0
  2  6  1  0  0  0
  3  7  1  0  0  0
  3 14  1  0  0  0
  4  8  1  0  0  0
  4 15  1  0  0  0
  4 16  1  0  0  0
  5  9  1  0  0  0
  5 10  1  0  0  0
  6 17  1  0  0  0
  6 18  1  0  0  0
  6 25  1  0  0  0
  7  9  2  0  0  0
  8 11  1  0  0  0
  9 12  1  0  0  0
 10 19  1  0  0  0
 11 13  2  0  0  0
 11 27  1  0  0  0
 11 28  1  0  0  0
 12 22  1  0  0  0
 12 23  1  0  0  0
 12 24  1  0  0  0
 20 25  1  0  0  0
 21 25  1  0  0  0
 25 26  1  0  0  0
M  CHG  3  25   1  27  -1  28  -1
M  END
> <i_ionizer_Ion_state_n>
14

> <i_ionizer_Tot_Q>
-1

> <s_ionizer_Ion_centers>
25_27_28

> <s_ionizer_Ion_types>
N5_OM_OM

> <s_ionizer_Ion_ctrs_in>
11_14_15

> <r_ionizer_Ionization_penalty>
0.0186482

> <r_ionizer_Ionization_penalty_charging>
0.000202249

> <r_ionizer_Ionization_penalty_neutral>
0.0184459

> <i_mmod_Serial_Number-OPLS-2005>
308

> <i_i_glide_lignum>
306

> <r_i_docking_score>
-6.48614

> <r_i_glide_gscore>
-6.48614

> <r_i_glide_lipo>
-0.734322

> <r_i_glide_hbond>
-2.02008

> <r_i_glide_metal>
0

> <r_i_glide_eburp>
-1.89531

> <r_i_glide_evdw>
-17.2357

> <r_i_glide_ecoul>
-8.97611

> <r_i_glide_erotb>
0.652609

> <r_i_glide_esite>
-0.212576

> <r_i_glide_emodel>
-67.0364

> <r_i_glide_energy>
-26.2118

> <r_i_glide_einternal>
2.75845

> <i_i_glide_confnum>
2

> <i_i_glide_posenum>
479

$$$$
C01213
                    3D
 Structure written by MMmdl.
 90 92  0  0  1  0            999 V2000
   -9.6530   10.7994   11.7565 N   0  0  0  0  0  0
  -10.7607   10.2320   10.9246 C   0  0  1  0  0  0
   -8.8088   10.0678   12.5618 C   0  0  0  0  0  0
   -9.2345   12.1074   11.8993 C   0  0  0  0  0  0
  -12.0385   11.0631   11.1130 C   0  0  1  0  0  0
  -10.3965   10.3368    9.5748 O   0  0  0  0  0  0
   -7.9445   11.0117   13.1790 C   0  0  0  0  0  0
   -8.7941    8.7178   12.7638 N   0  0  0  0  0  0
   -8.2370   12.2893   12.7239 N   0  0  0  0  0  0
  -12.5622   11.1479    9.6926 C   0  0  1  0  0  0
  -13.0264   10.4520   11.9152 O   0  0  0  0  0  0
  -11.2625   11.2396    8.8819 C   0  0  1  0  0  0
   -7.0031   10.4778   14.0938 C   0  0  0  0  0  0
   -7.8571    8.3634   13.6474 C   0  0  0  0  0  0
  -13.2390    9.9221    9.4126 O   0  0  0  0  0  0
  -10.6159   12.6368    8.8669 C   0  0  0  0  0  0
   -6.9895    9.1409   14.3043 N   0  0  0  0  0  0
   -6.1256   11.2359   14.7641 N   0  0  0  0  0  0
  -14.7106    9.9891    8.3873 P   0  0  0  0  0  0
   -9.3908   12.6373    8.1628 O   0  0  0  0  0  0
  -14.2013   10.6372    7.0813 O   0  0  0  0  0  0
   -8.5929   14.0931    7.7810 P   0  0  0  0  0  0
   -7.0990   13.6354    7.0991 O   0  0  0  0  0  0
   -9.3834   14.7968    6.7447 O   0  0  0  0  0  0
   -6.2734   13.8644    5.6266 P   0  0  0  0  0  0
   -5.1457   12.5854    5.5936 O   0  0  0  0  0  0
   -7.2192   13.6653    4.5055 O   0  0  0  0  0  0
   -5.5305   11.2369    5.7988 C   0  0  0  0  0  0
   -4.3171   10.2688    5.7786 C   0  0  0  0  0  0
   -3.8207   10.1246    4.2996 C   0  0  2  0  0  0
   -3.2183   10.8244    6.7118 C   0  0  0  0  0  0
   -4.7627    8.8914    6.3215 C   0  0  0  0  0  0
   -2.9872    8.8635    4.0018 C   0  0  0  0  0  0
   -3.0737   11.2619    3.9048 O   0  0  0  0  0  0
   -2.9049    8.4952    2.7146 N   0  0  0  0  0  0
   -2.4108    8.2580    4.9062 O   0  0  0  0  0  0
   -2.2988    7.2547    2.2504 C   0  0  0  0  0  0
   -0.8931    7.5191    1.6837 C   0  0  0  0  0  0
   -0.0266    6.2575    1.6151 C   0  0  0  0  0  0
    1.1986    6.4078    1.0923 N   0  0  0  0  0  0
   -0.4564    5.1774    2.0202 O   0  0  0  0  0  0
    2.1815    5.3390    0.9769 C   0  0  0  0  0  0
    2.3372    4.6033    2.3159 C   0  0  0  0  0  0
    2.4997    2.8047    2.0982 S   0  0  0  0  0  0
    1.3684    2.2247    3.3929 C   0  0  0  0  0  0
    1.5408    0.7561    3.8054 C   0  0  1  0  0  0
    0.5046    2.9431    3.8980 O   0  0  0  0  0  0
    1.0697   -0.1408    2.6461 C   0  0  0  0  0  0
    2.9898    0.4441    4.2385 C   0  0  0  0  0  0
    1.7069   -1.2012    2.4579 O   0  0  0  0  0  0
  -10.8479    9.1871   11.2248 H   0  0  0  0  0  0
   -9.6950   12.9354   11.3806 H   0  0  0  0  0  0
  -11.7893   12.0530   11.4951 H   0  0  0  0  0  0
  -13.2285   11.9993    9.5491 H   0  0  0  0  0  0
  -12.6393   10.3521   12.7750 H   0  0  0  0  0  0
  -11.3944   10.9148    7.8514 H   0  0  0  0  0  0
   -7.7960    7.3071   13.8632 H   0  0  0  0  0  0
  -11.2745   13.3634    8.4024 H   0  0  0  0  0  0
  -10.4531   12.9721    9.8913 H   0  0  0  0  0  0
   -5.4797   10.8071   15.4099 H   0  0  0  0  0  0
   -6.1346   12.2377   14.6354 H   0  0  0  0  0  0
   -6.0720   11.1507    6.7419 H   0  0  0  0  0  0
   -6.2445   10.9817    5.0153 H   0  0  0  0  0  0
   -4.6971   10.1023    3.6493 H   0  0  0  0  0  0
   -2.3624   10.1550    6.7901 H   0  0  0  0  0  0
   -2.8519   11.7949    6.3769 H   0  0  0  0  0  0
   -3.6045   10.9556    7.7213 H   0  0  0  0  0  0
   -3.9380    8.1803    6.3683 H   0  0  0  0  0  0
   -5.1569    8.9716    7.3349 H   0  0  0  0  0  0
   -5.5431    8.4527    5.6992 H   0  0  0  0  0  0
   -2.9783   11.2479    2.9651 H   0  0  0  0  0  0
   -3.2952    9.1103    2.0156 H   0  0  0  0  0  0
   -2.2454    6.5487    3.0813 H   0  0  0  0  0  0
   -2.9396    6.8087    1.4874 H   0  0  0  0  0  0
   -0.9680    7.9399    0.6804 H   0  0  0  0  0  0
   -0.3865    8.2633    2.3004 H   0  0  0  0  0  0
    1.4648    7.3193    0.7493 H   0  0  0  0  0  0
    1.8683    4.6364    0.2028 H   0  0  0  0  0  0
    3.1332    5.7646    0.6565 H   0  0  0  0  0  0
    3.1829    4.9900    2.8858 H   0  0  0  0  0  0
    1.4508    4.7779    2.9263 H   0  0  0  0  0  0
    0.8862    0.5608    4.6557 H   0  0  0  0  0  0
    3.0928   -0.5987    4.5409 H   0  0  0  0  0  0
    3.7068    0.6282    3.4369 H   0  0  0  0  0  0
    3.2833    1.0587    5.0900 H   0  0  0  0  0  0
  -15.1005    8.4969    8.3013 O   0  5  0  0  0  0
  -15.6374   10.8708    9.2531 O   0  5  0  0  0  0
   -8.3004   14.7901    9.0543 O   0  5  0  0  0  0
   -5.5237   15.1382    5.7257 O   0  5  0  0  0  0
    0.0974    0.2391    1.9554 O   0  5  0  0  0  0
  1  2  1  0  0  0
  1  3  1  0  0  0
  1  4  1  0  0  0
  2  5  1  0  0  0
  2  6  1  0  0  0
  2 51  1  0  0  0
  3  7  2  0  0  0
  3  8  1  0  0  0
  4  9  2  0  0  0
  4 52  1  0  0  0
  5 10  1  0  0  0
  5 11  1  0  0  0
  5 53  1  0  0  0
  6 12  1  0  0  0
  7 13  1  0  0  0
  7  9  1  0  0  0
  8 14  2  0  0  0
 10 15  1  0  0  0
 10 12  1  0  0  0
 10 54  1  0  0  0
 11 55  1  0  0  0
 12 16  1  0  0  0
 12 56  1  0  0  0
 13 17  2  0  0  0
 13 18  1  0  0  0
 14 17  1  0  0  0
 14 57  1  0  0  0
 15 19  1  0  0  0
 16 20  1  0  0  0
 16 58  1  0  0  0
 16 59  1  0  0  0
 18 60  1  0  0  0
 18 61  1  0  0  0
 19 21  2  0  0  0
 19 86  1  0  0  0
 19 87  1  0  0  0
 20 22  1  0  0  0
 22 23  1  0  0  0
 22 24  2  0  0  0
 22 88  1  0  0  0
 23 25  1  0  0  0
 25 26  1  0  0  0
 25 27  2  0  0  0
 25 89  1  0  0  0
 26 28  1  0  0  0
 28 29  1  0  0  0
 28 62  1  0  0  0
 28 63  1  0  0  0
 29 30  1  0  0  0
 29 31  1  0  0  0
 29 32  1  0  0  0
 30 33  1  0  0  0
 30 34  1  0  0  0
 30 64  1  0  0  0
 31 65  1  0  0  0
 31 66  1  0  0  0
 31 67  1  0  0  0
 32 68  1  0  0  0
 32 69  1  0  0  0
 32 70  1  0  0  0
 33 35  1  0  0  0
 33 36  2  0  0  0
 34 71  1  0  0  0
 35 37  1  0  0  0
 35 72  1  0  0  0
 37 38  1  0  0  0
 37 73  1  0  0  0
 37 74  1  0  0  0
 38 39  1  0  0  0
 38 75  1  0  0  0
 38 76  1  0  0  0
 39 40  1  0  0  0
 39 41  2  0  0  0
 40 42  1  0  0  0
 40 77  1  0  0  0
 42 43  1  0  0  0
 42 78  1  0  0  0
 42 79  1  0  0  0
 43 44  1  0  0  0
 43 80  1  0  0  0
 43 81  1  0  0  0
 44 45  1  0  0  0
 45 46  1  0  0  0
 45 47  2  0  0  0
 46 48  1  0  0  0
 46 49  1  0  0  0
 46 82  1  0  0  0
 48 50  2  0  0  0
 48 90  1  0  0  0
 49 83  1  0  0  0
 49 84  1  0  0  0
 49 85  1  0  0  0
M  CHG  5  86  -1  87  -1  88  -1  89  -1  90  -1
M  END
> <i_ionizer_Ion_state_n>
62

> <i_ionizer_Tot_Q>
-5

> <s_ionizer_Ion_centers>
86_87_88_89_90

> <s_ionizer_Ion_types>
OM_OM_OM_OM_OM

> <s_ionizer_Ion_ctrs_in>
21_22_26_30_54

> <r_ionizer_Ionization_penalty>
0.000640761

> <r_ionizer_Ionization_penalty_charging>
0.000622025

> <r_ionizer_Ionization_penalty_neutral>
1.87357e-05

> <s_st_Chirality_1>
2_R_6_1_5_51

> <s_st_Chirality_2>
5_R_11_2_10_53

> <s_st_Chirality_3>
10_R_15_5_12_54

> <s_st_Chirality_4>
12_R_6_10_16_56

> <s_st_Chirality_5>
46_R_45_48_49_82

> <s_st_Chirality_6>
30_R_34_33_29_64

> <i_mmod_Serial_Number-OPLS-2005>
423

> <i_i_glide_lignum>
419

> <r_i_docking_score>
-6.48441

> <r_i_glide_gscore>
-6.48441

> <r_i_glide_lipo>
-0.801025

> <r_i_glide_hbond>
-2.06716

> <r_i_glide_metal>
0

> <r_i_glide_eburp>
0.0671562

> <r_i_glide_evdw>
-40.4412

> <r_i_glide_ecoul>
-9.30079

> <r_i_glide_erotb>
0.497358

> <r_i_glide_esite>
-0.0153637

> <r_i_glide_emodel>
-102.192

> <r_i_glide_energy>
-49.742

> <r_i_glide_einternal>
14.8927

> <i_i_glide_confnum>
124

> <i_i_glide_posenum>
228

$$$$
C00170
                    3D
 Structure written by MMmdl.
 35 37  0  0  1  0            999 V2000
    1.6708    3.0198    2.4419 N   0  0  0  0  0  0
    0.9576    4.1944    2.3540 C   0  0  0  0  0  0
    1.3232    1.8562    3.3137 C   0  0  2  0  0  0
    2.7303    3.1792    1.5726 C   0  0  0  0  0  0
    1.6496    4.9996    1.4094 C   0  0  0  0  0  0
   -0.1832    4.5384    3.0194 N   0  0  0  0  0  0
    2.3407    1.7133    4.2972 O   0  0  0  0  0  0
    1.3861    0.5808    2.4819 C   0  0  1  0  0  0
    2.7658    4.3209    0.9378 N   0  0  0  0  0  0
    1.0817    6.2730    1.1548 C   0  0  0  0  0  0
   -0.5986    5.7617    2.6779 C   0  0  0  0  0  0
    2.7719    0.3707    4.4084 C   0  0  1  0  0  0
    1.8870   -0.4558    3.4630 C   0  0  1  0  0  0
    0.1132    0.2348    1.9693 O   0  0  0  0  0  0
   -0.0494    6.6205    1.8120 N   0  0  0  0  0  0
    1.6110    7.1511    0.2929 N   0  0  0  0  0  0
    4.2605    0.2460    4.0452 C   0  0  0  0  0  0
    0.8373   -1.1247    4.1385 O   0  0  0  0  0  0
    5.3003    1.4105    4.9700 S   0  0  0  0  0  0
    6.1717    0.2453    6.0491 C   0  0  0  0  0  0
    0.3297    2.0871    3.7009 H   0  0  0  0  0  0
    3.4836    2.4207    1.4194 H   0  0  0  0  0  0
    2.0715    0.6916    1.6402 H   0  0  0  0  0  0
   -1.4994    6.1029    3.1667 H   0  0  0  0  0  0
    2.5976    0.0224    5.4280 H   0  0  0  0  0  0
    2.5016   -1.1878    2.9367 H   0  0  0  0  0  0
   -0.1355    0.9024    1.3469 H   0  0  0  0  0  0
    1.1652    8.0453    0.1492 H   0  0  0  0  0  0
    2.4550    6.9136   -0.2083 H   0  0  0  0  0  0
    4.6152   -0.7690    4.2246 H   0  0  0  0  0  0
    4.3940    0.4447    2.9814 H   0  0  0  0  0  0
    0.3760   -1.6638    3.5127 H   0  0  0  0  0  0
    6.8639    0.7805    6.6991 H   0  0  0  0  0  0
    5.4630   -0.2999    6.6727 H   0  0  0  0  0  0
    6.7388   -0.4724    5.4562 H   0  0  0  0  0  0
  1  2  1  0  0  0
  1  3  1  0  0  0
  1  4  1  0  0  0
  2  5  2  0  0  0
  2  6  1  0  0  0
  3  7  1  0  0  0
  3  8  1  0  0  0
  3 21  1  0  0  0
  4  9  2  0  0  0
  4 22  1  0  0  0
  5 10  1  0  0  0
  5  9  1  0  0  0
  6 11  2  0  0  0
  7 12  1  0  0  0
  8 13  1  0  0  0
  8 14  1  0  0  0
  8 23  1  0  0  0
 10 15  2  0  0  0
 10 16  1  0  0  0
 11 15  1  0  0  0
 11 24  1  0  0  0
 12 17  1  0  0  0
 12 13  1  0  0  0
 12 25  1  0  0  0
 13 18  1  0  0  0
 13 26  1  0  0  0
 14 27  1  0  0  0
 16 28  1  0  0  0
 16 29  1  0  0  0
 17 19  1  0  0  0
 17 30  1  0  0  0
 17 31  1  0  0  0
 18 32  1  0  0  0
 19 20  1  0  0  0
 20 33  1  0  0  0
 20 34  1  0  0  0
 20 35  1  0  0  0
M  END
> <i_ionizer_Ion_state_n>
0

> <i_ionizer_Tot_Q>
0

> <s_ionizer_Ion_centers>


> <s_ionizer_Ion_types>


> <s_ionizer_Ion_ctrs_in>


> <r_ionizer_Ionization_penalty>
1.87357e-05

> <r_ionizer_Ionization_penalty_charging>
0

> <r_ionizer_Ionization_penalty_neutral>
1.87357e-05

> <s_st_Chirality_1>
3_R_7_1_8_21

> <s_st_Chirality_2>
8_R_14_3_13_23

> <s_st_Chirality_3>
12_S_7_17_13_25

> <s_st_Chirality_4>
13_S_18_12_8_26

> <i_mmod_Serial_Number-OPLS-2005>
123

> <i_i_glide_lignum>
121

> <r_i_docking_score>
-6.48208

> <r_i_glide_gscore>
-6.48208

> <r_i_glide_lipo>
-0.722166

> <r_i_glide_hbond>
-0.532487

> <r_i_glide_metal>
0

> <r_i_glide_eburp>
-1.53532

> <r_i_glide_evdw>
-34.7679

> <r_i_glide_ecoul>
-4.45546

> <r_i_glide_erotb>
0.473999

> <r_i_glide_esite>
-0.939129

> <r_i_glide_emodel>
-55.2858

> <r_i_glide_energy>
-39.2233

> <r_i_glide_einternal>
2.96648

> <i_i_glide_confnum>
10

> <i_i_glide_posenum>
967

$$$$
C00130
                    3D
 Structure written by MMmdl.
 34 36  0  0  1  0            999 V2000
    1.3964    4.9124    2.0151 N   0  0  0  0  0  0
    0.5564    5.8822    1.4781 C   0  0  0  0  0  0
    2.8711    4.7766    1.7988 C   0  0  2  0  0  0
    0.5897    4.1396    2.7711 C   0  0  0  0  0  0
   -0.6975    5.6129    1.9565 C   0  0  0  0  0  0
    0.9503    6.9032    0.6370 N   0  0  0  0  0  0
    3.1013    3.5680    1.1326 O   0  0  0  0  0  0
    3.5757    4.6962    3.1561 C   0  0  1  0  0  0
   -0.6929    4.4987    2.7865 N   0  0  0  0  0  0
   -1.8046    6.5065    1.5402 C   0  0  0  0  0  0
   -0.0501    7.6722    0.2919 C   0  0  0  0  0  0
    3.8135    2.6504    1.9640 C   0  0  1  0  0  0
    3.6416    3.1945    3.3844 C   0  0  1  0  0  0
    4.8559    5.2952    3.0999 O   0  0  0  0  0  0
   -1.3920    7.4998    0.7159 N   0  0  0  0  0  0
   -2.9707    6.3648    1.9021 O   0  0  0  0  0  0
    3.2902    1.2247    1.7203 C   0  0  0  0  0  0
    4.6899    2.8392    4.2638 O   0  0  0  0  0  0
    1.8757    1.2156    1.6213 O   0  0  0  0  0  0
    1.0291    0.0406    2.6748 P   0  0  0  0  0  0
   -0.2862   -0.1951    1.9002 O   0  0  0  0  0  0
    3.1424    5.6419    1.1927 H   0  0  0  0  0  0
    0.9511    3.2889    3.3297 H   0  0  0  0  0  0
    2.9995    5.2013    3.9330 H   0  0  0  0  0  0
    0.0801    8.5301   -0.3693 H   0  0  0  0  0  0
    4.8601    2.7184    1.6623 H   0  0  0  0  0  0
    2.6940    2.8522    3.8028 H   0  0  0  0  0  0
    5.1242    5.2975    2.1923 H   0  0  0  0  0  0
   -2.0901    8.1514    0.3894 H   0  0  0  0  0  0
    3.7734    0.7703    0.8548 H   0  0  0  0  0  0
    3.5415    0.5966    2.5748 H   0  0  0  0  0  0
    4.7056    1.8849    4.3070 H   0  0  0  0  0  0
    2.0229   -1.1419    2.7001 O   0  5  0  0  0  0
    0.9002    0.8430    3.9876 O   0  5  0  0  0  0
  1  2  1  0  0  0
  1  3  1  0  0  0
  1  4  1  0  0  0
  2  5  2  0  0  0
  2  6  1  0  0  0
  3  7  1  0  0  0
  3  8  1  0  0  0
  3 22  1  0  0  0
  4  9  2  0  0  0
  4 23  1  0  0  0
  5 10  1  0  0  0
  5  9  1  0  0  0
  6 11  2  0  0  0
  7 12  1  0  0  0
  8 13  1  0  0  0
  8 14  1  0  0  0
  8 24  1  0  0  0
 10 15  1  0  0  0
 10 16  2  0  0  0
 11 15  1  0  0  0
 11 25  1  0  0  0
 12 17  1  0  0  0
 12 13  1  0  0  0
 12 26  1  0  0  0
 13 18  1  0  0  0
 13 27  1  0  0  0
 14 28  1  0  0  0
 15 29  1  0  0  0
 17 19  1  0  0  0
 17 30  1  0  0  0
 17 31  1  0  0  0
 18 32  1  0  0  0
 19 20  1  0  0  0
 20 21  2  0  0  0
 20 33  1  0  0  0
 20 34  1  0  0  0
M  CHG  2  33  -1  34  -1
M  END
> <i_ionizer_Ion_state_n>
6

> <i_ionizer_Tot_Q>
-2

> <s_ionizer_Ion_centers>
33_34

> <s_ionizer_Ion_types>
OM_OM

> <s_ionizer_Ion_ctrs_in>
21_22

> <r_ionizer_Ionization_penalty>
3.36536e-05

> <r_ionizer_Ionization_penalty_charging>
1.49178e-05

> <r_ionizer_Ionization_penalty_neutral>
1.87357e-05

> <s_st_Chirality_1>
3_R_7_1_8_22

> <s_st_Chirality_2>
8_R_14_3_13_24

> <s_st_Chirality_3>
12_R_7_13_17_26

> <s_st_Chirality_4>
13_R_18_8_12_27

> <i_mmod_Serial_Number-OPLS-2005>
94

> <i_i_glide_lignum>
92

> <r_i_docking_score>
-6.48166

> <r_i_glide_gscore>
-6.48166

> <r_i_glide_lipo>
-0.527876

> <r_i_glide_hbond>
-0.882668

> <r_i_glide_metal>
0

> <r_i_glide_eburp>
-1.16519

> <r_i_glide_evdw>
-38.389

> <r_i_glide_ecoul>
-11.9914

> <r_i_glide_erotb>
0.543793

> <r_i_glide_esite>
-0.179458

> <r_i_glide_emodel>
-94.1842

> <r_i_glide_energy>
-50.3804

> <r_i_glide_einternal>
7.04038

> <i_i_glide_confnum>
5

> <i_i_glide_posenum>
612

$$$$
C01169
                    3D
 Structure written by MMmdl.
 39 38  0  0  1  0            999 V2000
    3.8225   -0.1574    2.4767 C   0  0  2  0  0  0
    2.3131   -0.9602    3.1444 S   0  0  0  0  0  0
    4.2498   -0.6954    1.0914 C   0  0  0  0  0  0
    4.9923   -0.1149    3.4853 C   0  0  0  0  0  0
    0.9747   -0.2116    2.1708 C   0  0  0  0  0  0
    5.6990   -0.3533    0.7034 C   0  0  0  0  0  0
    4.7986    0.9071    4.6173 C   0  0  0  0  0  0
    1.0037    1.3128    2.1091 C   0  0  0  0  0  0
    0.0992   -0.8493    1.5900 O   0  0  0  0  0  0
    6.1263   -1.0158   -0.6142 C   0  0  0  0  0  0
    6.1005    0.6786    5.8565 S   0  0  0  0  0  0
    0.9444    1.9326    3.5209 C   0  0  0  0  0  0
    7.6439   -1.2654   -0.6794 C   0  0  0  0  0  0
    0.5379    3.4108    3.5111 C   0  0  0  0  0  0
    8.4686   -0.0530   -0.2368 C   0  0  0  0  0  0
   -0.6796    3.6997    3.5138 O   0  0  0  0  0  0
    9.5986   -0.3000    0.4286 N   0  0  0  0  0  0
    8.1017    1.0918   -0.4929 O   0  0  0  0  0  0
    3.5264    0.8800    2.3163 H   0  0  0  0  0  0
    4.1473   -1.7812    1.0991 H   0  0  0  0  0  0
    3.5732   -0.3500    0.3116 H   0  0  0  0  0  0
    5.1781   -1.1002    3.9095 H   0  0  0  0  0  0
    5.9028    0.1442    2.9433 H   0  0  0  0  0  0
    5.8120    0.7267    0.6063 H   0  0  0  0  0  0
    6.3736   -0.6650    1.5016 H   0  0  0  0  0  0
    4.8480    1.9264    4.2333 H   0  0  0  0  0  0
    3.8302    0.7830    5.1020 H   0  0  0  0  0  0
    1.9130    1.6251    1.5932 H   0  0  0  0  0  0
    0.1638    1.6552    1.5028 H   0  0  0  0  0  0
    5.5905   -1.9590   -0.7313 H   0  0  0  0  0  0
    5.8246   -0.3828   -1.4502 H   0  0  0  0  0  0
    5.8366   -0.6078    6.1028 H   0  0  0  0  0  0
    0.2319    1.3891    4.1430 H   0  0  0  0  0  0
    1.9167    1.8489    4.0084 H   0  0  0  0  0  0
    7.8987   -2.1225   -0.0541 H   0  0  0  0  0  0
    7.9348   -1.5237   -1.6981 H   0  0  0  0  0  0
   10.1718    0.4716    0.7369 H   0  0  0  0  0  0
    9.8744   -1.2512    0.6241 H   0  0  0  0  0  0
    1.4736    4.2397    3.5026 O   0  5  0  0  0  0
  1  2  1  0  0  0
  1  3  1  0  0  0
  1  4  1  0  0  0
  1 19  1  0  0  0
  2  5  1  0  0  0
  3  6  1  0  0  0
  3 20  1  0  0  0
  3 21  1  0  0  0
  4  7  1  0  0  0
  4 22  1  0  0  0
  4 23  1  0  0  0
  5  8  1  0  0  0
  5  9  2  0  0  0
  6 10  1  0  0  0
  6 24  1  0  0  0
  6 25  1  0  0  0
  7 11  1  0  0  0
  7 26  1  0  0  0
  7 27  1  0  0  0
  8 12  1  0  0  0
  8 28  1  0  0  0
  8 29  1  0  0  0
 10 13  1  0  0  0
 10 30  1  0  0  0
 10 31  1  0  0  0
 11 32  1  0  0  0
 12 14  1  0  0  0
 12 33  1  0  0  0
 12 34  1  0  0  0
 13 15  1  0  0  0
 13 35  1  0  0  0
 13 36  1  0  0  0
 14 16  2  0  0  0
 14 39  1  0  0  0
 15 17  1  0  0  0
 15 18  2  0  0  0
 17 37  1  0  0  0
 17 38  1  0  0  0
M  CHG  1  39  -1
M  END
> <i_ionizer_Ion_state_n>
2

> <i_ionizer_Tot_Q>
-1

> <s_ionizer_Ion_centers>
39

> <s_ionizer_Ion_types>
OM

> <s_ionizer_Ion_ctrs_in>
16

> <r_ionizer_Ionization_penalty>
0.00246284

> <r_ionizer_Ionization_penalty_charging>
0.00059219

> <r_ionizer_Ionization_penalty_neutral>
0.00187065

> <s_st_Chirality_1>
1_R_2_4_3_19

> <i_mmod_Serial_Number-OPLS-2005>
411

> <i_i_glide_lignum>
407

> <r_i_docking_score>
-6.47709

> <r_i_glide_gscore>
-6.47709

> <r_i_glide_lipo>
-0.81047

> <r_i_glide_hbond>
-1.80787

> <r_i_glide_metal>
0

> <r_i_glide_eburp>
-1.46647

> <r_i_glide_evdw>
-30.6059

> <r_i_glide_ecoul>
-7.35294

> <r_i_glide_erotb>
2.24829

> <r_i_glide_esite>
-1.4568

> <r_i_glide_emodel>
-69.1657

> <r_i_glide_energy>
-37.9588

> <r_i_glide_einternal>
11.082

> <i_i_glide_confnum>
114

> <i_i_glide_posenum>
556

$$$$
C01144
                    3D
 Structure written by MMmdl.
 92 94  0  0  1  0            999 V2000
   -5.6000   14.1489    2.8914 N   0  0  0  0  0  0
   -6.8845   13.6900    2.2629 C   0  0  2  0  0  0
   -4.6928   15.0416    2.3577 C   0  0  0  0  0  0
   -5.0886   13.8295    4.1332 C   0  0  0  0  0  0
   -7.9263   14.4373    2.8330 O   0  0  0  0  0  0
   -7.1693   12.2160    2.6058 C   0  0  1  0  0  0
   -3.6378   15.1356    3.3060 C   0  0  0  0  0  0
   -4.7530   15.7033    1.1651 N   0  0  0  0  0  0
   -3.9312   14.3621    4.4204 N   0  0  0  0  0  0
   -8.6789   13.6434    3.7543 C   0  0  1  0  0  0
   -8.6064   12.2640    3.0900 C   0  0  1  0  0  0
   -7.0970   11.3335    1.5063 O   0  0  0  0  0  0
   -2.5530   15.9713    2.9408 C   0  0  0  0  0  0
   -3.6697   16.4577    0.9634 C   0  0  0  0  0  0
   -8.0395   13.7339    5.1569 C   0  0  0  0  0  0
   -9.4506   12.2517    1.9407 O   0  0  0  0  0  0
   -2.6053   16.6221    1.7554 N   0  0  0  0  0  0
   -1.4774   16.1530    3.7180 N   0  0  0  0  0  0
   -8.7210   12.9728    6.1309 O   0  0  0  0  0  0
  -11.2035   11.9518    2.1837 P   0  0  0  0  0  0
   -8.0831   12.8423    7.7022 P   0  0  0  0  0  0
  -11.8120   12.1759    0.7826 O   0  0  0  0  0  0
   -6.5931   12.0599    7.4448 O   0  0  0  0  0  0
   -7.8008   14.2099    8.1958 O   0  0  0  0  0  0
   -5.1874   11.7535    8.3524 P   0  0  0  0  0  0
   -4.3411   10.5911    7.4370 O   0  0  0  0  0  0
   -4.3750   12.9915    8.3627 O   0  0  0  0  0  0
   -3.8362   10.8689    6.1413 C   0  0  0  0  0  0
   -3.0809    9.6482    5.5525 C   0  0  0  0  0  0
   -2.6676    9.9113    4.0603 C   0  0  2  0  0  0
   -1.8481    9.3445    6.4361 C   0  0  0  0  0  0
   -3.9769    8.3884    5.6091 C   0  0  0  0  0  0
   -2.0000    8.7344    3.3034 C   0  0  0  0  0  0
   -1.8443   11.0689    3.9864 O   0  0  0  0  0  0
   -1.7707    8.8942    1.9894 N   0  0  0  0  0  0
   -1.7257    7.6873    3.8871 O   0  0  0  0  0  0
   -1.1430    7.9128    1.1086 C   0  0  0  0  0  0
    0.1874    7.3777    1.6766 C   0  0  0  0  0  0
    0.9145    6.3808    0.7652 C   0  0  0  0  0  0
    1.8470    5.6225    1.3533 N   0  0  0  0  0  0
    0.6359    6.2966   -0.4321 O   0  0  0  0  0  0
    2.7039    4.6687    0.6684 C   0  0  0  0  0  0
    2.4614    3.2576    1.2139 C   0  0  0  0  0  0
    3.2546    3.0267    2.8302 S   0  0  0  0  0  0
    3.1742    1.2211    2.9282 C   0  0  0  0  0  0
    2.1067    0.6628    3.8697 C   0  0  0  0  0  0
    3.9178    0.4735    2.2941 O   0  0  0  0  0  0
    1.3599   -0.5534    3.2849 C   0  0  2  0  0  0
    0.4729   -0.2207    2.0738 C   0  0  0  0  0  0
    0.5367   -1.0993    4.2950 O   0  0  0  0  0  0
   -6.7735   13.9017    1.1991 H   0  0  0  0  0  0
   -5.5905   13.1604    4.8171 H   0  0  0  0  0  0
   -6.5099   11.8861    3.4067 H   0  0  0  0  0  0
   -9.7017   14.0136    3.8110 H   0  0  0  0  0  0
   -8.8502   11.4380    3.7584 H   0  0  0  0  0  0
   -6.1803   11.1106    1.4103 H   0  0  0  0  0  0
   -3.6475   16.9998    0.0297 H   0  0  0  0  0  0
   -7.0202   13.3560    5.1516 H   0  0  0  0  0  0
   -7.9824   14.7770    5.4690 H   0  0  0  0  0  0
   -0.7246   16.7465    3.4036 H   0  0  0  0  0  0
   -1.3965   15.6337    4.5802 H   0  0  0  0  0  0
   -4.6508   11.1701    5.4826 H   0  0  0  0  0  0
   -3.1814   11.7353    6.2206 H   0  0  0  0  0  0
   -3.5685   10.1510    3.4941 H   0  0  0  0  0  0
   -1.2134    8.5794    5.9887 H   0  0  0  0  0  0
   -1.2335   10.2237    6.6185 H   0  0  0  0  0  0
   -2.1507    8.9797    7.4177 H   0  0  0  0  0  0
   -3.4819    7.5289    5.1563 H   0  0  0  0  0  0
   -4.2206    8.1157    6.6365 H   0  0  0  0  0  0
   -4.9241    8.5335    5.0894 H   0  0  0  0  0  0
   -1.7553   11.3121    3.0765 H   0  0  0  0  0  0
   -2.0340    9.7785    1.5777 H   0  0  0  0  0  0
   -1.8262    7.0821    0.9246 H   0  0  0  0  0  0
   -0.9751    8.3815    0.1384 H   0  0  0  0  0  0
    0.8514    8.2165    1.8889 H   0  0  0  0  0  0
    0.0038    6.8876    2.6331 H   0  0  0  0  0  0
    1.9813    5.7170    2.3597 H   0  0  0  0  0  0
    2.5051    4.6991   -0.4037 H   0  0  0  0  0  0
    3.7463    4.9545    0.8135 H   0  0  0  0  0  0
    1.3905    3.0853    1.3182 H   0  0  0  0  0  0
    2.8379    2.5088    0.5160 H   0  0  0  0  0  0
    2.5960    0.3871    4.8049 H   0  0  0  0  0  0
    1.4026    1.4589    4.1155 H   0  0  0  0  0  0
    2.0787   -1.3231    3.0003 H   0  0  0  0  0  0
    1.0639    0.1444    1.2335 H   0  0  0  0  0  0
   -0.0661   -1.1038    1.7293 H   0  0  0  0  0  0
   -0.2640    0.5451    2.3184 H   0  0  0  0  0  0
    0.1134   -1.8720    3.9531 H   0  0  0  0  0  0
  -11.1956   10.4920    2.6870 O   0  5  0  0  0  0
  -11.5500   13.0256    3.2379 O   0  5  0  0  0  0
   -8.9659   11.9518    8.4885 O   0  5  0  0  0  0
   -5.5894   11.1443    9.6409 O   0  5  0  0  0  0
  1  2  1  0  0  0
  1  3  1  0  0  0
  1  4  1  0  0  0
  2  5  1  0  0  0
  2  6  1  0  0  0
  2 51  1  0  0  0
  3  7  2  0  0  0
  3  8  1  0  0  0
  4  9  2  0  0  0
  4 52  1  0  0  0
  5 10  1  0  0  0
  6 11  1  0  0  0
  6 12  1  0  0  0
  6 53  1  0  0  0
  7 13  1  0  0  0
  7  9  1  0  0  0
  8 14  2  0  0  0
 10 15  1  0  0  0
 10 11  1  0  0  0
 10 54  1  0  0  0
 11 16  1  0  0  0
 11 55  1  0  0  0
 12 56  1  0  0  0
 13 17  2  0  0  0
 13 18  1  0  0  0
 14 17  1  0  0  0
 14 57  1  0  0  0
 15 19  1  0  0  0
 15 58  1  0  0  0
 15 59  1  0  0  0
 16 20  1  0  0  0
 18 60  1  0  0  0
 18 61  1  0  0  0
 19 21  1  0  0  0
 20 22  2  0  0  0
 20 89  1  0  0  0
 20 90  1  0  0  0
 21 23  1  0  0  0
 21 24  2  0  0  0
 21 91  1  0  0  0
 23 25  1  0  0  0
 25 26  1  0  0  0
 25 27  2  0  0  0
 25 92  1  0  0  0
 26 28  1  0  0  0
 28 29  1  0  0  0
 28 62  1  0  0  0
 28 63  1  0  0  0
 29 30  1  0  0  0
 29 31  1  0  0  0
 29 32  1  0  0  0
 30 33  1  0  0  0
 30 34  1  0  0  0
 30 64  1  0  0  0
 31 65  1  0  0  0
 31 66  1  0  0  0
 31 67  1  0  0  0
 32 68  1  0  0  0
 32 69  1  0  0  0
 32 70  1  0  0  0
 33 35  1  0  0  0
 33 36  2  0  0  0
 34 71  1  0  0  0
 35 37  1  0  0  0
 35 72  1  0  0  0
 37 38  1  0  0  0
 37 73  1  0  0  0
 37 74  1  0  0  0
 38 39  1  0  0  0
 38 75  1  0  0  0
 38 76  1  0  0  0
 39 40  1  0  0  0
 39 41  2  0  0  0
 40 42  1  0  0  0
 40 77  1  0  0  0
 42 43  1  0  0  0
 42 78  1  0  0  0
 42 79  1  0  0  0
 43 44  1  0  0  0
 43 80  1  0  0  0
 43 81  1  0  0  0
 44 45  1  0  0  0
 45 46  1  0  0  0
 45 47  2  0  0  0
 46 48  1  0  0  0
 46 82  1  0  0  0
 46 83  1  0  0  0
 48 49  1  0  0  0
 48 50  1  0  0  0
 48 84  1  0  0  0
 49 85  1  0  0  0
 49 86  1  0  0  0
 49 87  1  0  0  0
 50 88  1  0  0  0
M  CHG  4  89  -1  90  -1  91  -1  92  -1
M  END
> <i_ionizer_Ion_state_n>
30

> <i_ionizer_Tot_Q>
-4

> <s_ionizer_Ion_centers>
89_90_91_92

> <s_ionizer_Ion_types>
OM_OM_OM_OM

> <s_ionizer_Ion_ctrs_in>
22_23_26_30

> <r_ionizer_Ionization_penalty>
4.85714e-05

> <r_ionizer_Ionization_penalty_charging>
2.98356e-05

> <r_ionizer_Ionization_penalty_neutral>
1.87357e-05

> <s_st_Chirality_1>
2_R_5_1_6_51

> <s_st_Chirality_2>
6_R_12_2_11_53

> <s_st_Chirality_3>
10_R_5_11_15_54

> <s_st_Chirality_4>
11_R_16_6_10_55

> <s_st_Chirality_5>
48_S_50_46_49_84

> <s_st_Chirality_6>
30_R_34_33_29_64

> <i_mmod_Serial_Number-OPLS-2005>
401

> <i_i_glide_lignum>
397

> <r_i_docking_score>
-6.47151

> <r_i_glide_gscore>
-6.47151

> <r_i_glide_lipo>
-0.991072

> <r_i_glide_hbond>
-1.68311

> <r_i_glide_metal>
0

> <r_i_glide_eburp>
0

> <r_i_glide_evdw>
-48.6897

> <r_i_glide_ecoul>
-5.54626

> <r_i_glide_erotb>
0.555565

> <r_i_glide_esite>
0.0969099

> <r_i_glide_emodel>
-89.8661

> <r_i_glide_energy>
-54.236

> <r_i_glide_einternal>
8.58636

> <i_i_glide_confnum>
848

> <i_i_glide_posenum>
214

$$$$
C05145
                    3D
 Structure written by MMmdl.
 16 15  0  0  1  0            999 V2000
    1.3569    0.8425    3.4880 C   0  0  1  0  0  0
    0.8813   -0.2261    2.4895 C   0  0  0  0  0  0
    2.6851    0.4387    4.1652 C   0  0  0  0  0  0
    1.4481    2.2051    2.7764 C   0  0  0  0  0  0
   -0.1251    0.0232    1.7894 O   0  0  0  0  0  0
    0.5830    0.9031    4.2550 H   0  0  0  0  0  0
    3.4255    0.1379    3.4221 H   0  0  0  0  0  0
    3.1102    1.2777    4.7181 H   0  0  0  0  0  0
    2.2184    2.1999    2.0041 H   0  0  0  0  0  0
    0.5034    2.4706    2.2996 H   0  0  0  0  0  0
    1.6881    3.0029    3.4791 H   0  0  0  0  0  0
    3.3856   -0.9415    5.5017 H   0  0  0  0  0  0
    1.8405   -0.4460    5.8017 H   0  0  0  0  0  0
    1.5382   -1.2892    2.4526 O   0  5  0  0  0  0
    2.5001   -0.7003    5.0804 N   0  3  0  0  0  0
    2.1453   -1.4918    4.5632 H   0  0  0  0  0  0
  1  2  1  0  0  0
  1  3  1  0  0  0
  1  4  1  0  0  0
  1  6  1  0  0  0
  2  5  2  0  0  0
  2 14  1  0  0  0
  3  7  1  0  0  0
  3  8  1  0  0  0
  3 15  1  0  0  0
  4  9  1  0  0  0
  4 10  1  0  0  0
  4 11  1  0  0  0
 12 15  1  0  0  0
 13 15  1  0  0  0
 15 16  1  0  0  0
M  CHG  2  14  -1  15   1
M  END
> <i_ionizer_Ion_state_n>
3

> <i_ionizer_Tot_Q>
0

> <s_ionizer_Ion_centers>
14_15

> <s_ionizer_Ion_types>
OM_N5

> <s_ionizer_Ion_ctrs_in>
5_7

> <r_ionizer_Ionization_penalty>
0.000779521

> <r_ionizer_Ionization_penalty_charging>
0.000779521

> <r_ionizer_Ionization_penalty_neutral>
0

> <s_st_Chirality_1>
1_R_2_3_4_6

> <i_mmod_Serial_Number-OPLS-2005>
639

> <i_i_glide_lignum>
632

> <r_i_docking_score>
-6.44967

> <r_i_glide_gscore>
-6.44967

> <r_i_glide_lipo>
-0.286139

> <r_i_glide_hbond>
-1.41165

> <r_i_glide_metal>
0

> <r_i_glide_eburp>
-2.5

> <r_i_glide_evdw>
-10.0055

> <r_i_glide_ecoul>
-8.88863

> <r_i_glide_erotb>
0

> <r_i_glide_esite>
-0.562582

> <r_i_glide_emodel>
-35.069

> <r_i_glide_energy>
-18.8941

> <r_i_glide_einternal>
0.629082

> <i_i_glide_confnum>
1

> <i_i_glide_posenum>
284

$$$$
C01172
                    3D
 Structure written by MMmdl.
 27 27  0  0  1  0            999 V2000
   -0.1759    4.7764    3.0704 P   0  0  0  0  0  0
    1.0160    4.6075    1.7356 O   0  0  0  0  0  0
    0.2497    6.1006    3.7441 O   0  0  0  0  0  0
    2.3386    4.2152    2.0815 C   0  0  0  0  0  0
    2.3738    2.9092    2.9004 C   0  0  2  0  0  0
    3.7932    2.4878    3.3385 C   0  0  2  0  0  0
    1.8755    1.8695    2.0680 O   0  0  0  0  0  0
    3.7455    1.1064    4.0198 C   0  0  1  0  0  0
    4.2947    3.4172    4.2801 O   0  0  0  0  0  0
    1.6422    0.6696    2.7278 C   0  0  2  0  0  0
    3.0041    0.0769    3.1419 C   0  0  2  0  0  0
    5.0741    0.6517    4.1981 O   0  0  0  0  0  0
    0.9682   -0.2253    1.8760 O   0  0  0  0  0  0
    2.8237   -1.1008    3.9049 O   0  0  0  0  0  0
    2.7420    5.0350    2.6751 H   0  0  0  0  0  0
    2.9712    4.1464    1.1961 H   0  0  0  0  0  0
    1.7404    3.0287    3.7818 H   0  0  0  0  0  0
    4.4521    2.4596    2.4691 H   0  0  0  0  0  0
    3.2534    1.1863    4.9912 H   0  0  0  0  0  0
    3.7167    3.4089    5.0283 H   0  0  0  0  0  0
    0.9893    0.8446    3.5856 H   0  0  0  0  0  0
    3.5729   -0.1478    2.2377 H   0  0  0  0  0  0
    5.0341   -0.1778    4.6508 H   0  0  0  0  0  0
    1.5439   -0.4000    1.1453 H   0  0  0  0  0  0
    3.6404   -1.2861    4.3443 H   0  0  0  0  0  0
   -1.5220    4.7984    2.3103 O   0  5  0  0  0  0
    0.1030    3.4964    3.8882 O   0  5  0  0  0  0
  1  2  1  0  0  0
  1  3  2  0  0  0
  1 26  1  0  0  0
  1 27  1  0  0  0
  2  4  1  0  0  0
  4  5  1  0  0  0
  4 15  1  0  0  0
  4 16  1  0  0  0
  5  6  1  0  0  0
  5  7  1  0  0  0
  5 17  1  0  0  0
  6  8  1  0  0  0
  6  9  1  0  0  0
  6 18  1  0  0  0
  7 10  1  0  0  0
  8 11  1  0  0  0
  8 12  1  0  0  0
  8 19  1  0  0  0
  9 20  1  0  0  0
 10 13  1  0  0  0
 10 11  1  0  0  0
 10 21  1  0  0  0
 11 14  1  0  0  0
 11 22  1  0  0  0
 12 23  1  0  0  0
 13 24  1  0  0  0
 14 25  1  0  0  0
M  CHG  2  26  -1  27  -1
M  END
> <i_ionizer_Ion_state_n>
3

> <i_ionizer_Tot_Q>
-2

> <s_ionizer_Ion_centers>
26_27

> <s_ionizer_Ion_types>
OM_OM

> <s_ionizer_Ion_ctrs_in>
3_4

> <r_ionizer_Ionization_penalty>
1.49178e-05

> <r_ionizer_Ionization_penalty_charging>
1.49178e-05

> <r_ionizer_Ionization_penalty_neutral>
0

> <s_st_Chirality_1>
5_R_7_6_4_17

> <s_st_Chirality_2>
6_R_9_8_5_18

> <s_st_Chirality_3>
8_S_12_11_6_19

> <s_st_Chirality_4>
10_R_7_13_11_21

> <s_st_Chirality_5>
11_R_14_10_8_22

> <i_mmod_Serial_Number-OPLS-2005>
413

> <i_i_glide_lignum>
409

> <r_i_docking_score>
-6.44149

> <r_i_glide_gscore>
-6.44149

> <r_i_glide_lipo>
-0.436026

> <r_i_glide_hbond>
-1.87635

> <r_i_glide_metal>
0

> <r_i_glide_eburp>
-2.2324

> <r_i_glide_evdw>
-21.6496

> <r_i_glide_ecoul>
-6.15487

> <r_i_glide_erotb>
0.6058

> <r_i_glide_esite>
-0.155064

> <r_i_glide_emodel>
-63.1772

> <r_i_glide_energy>
-27.8044

> <r_i_glide_einternal>
4.29236

> <i_i_glide_confnum>
3

> <i_i_glide_posenum>
275

$$$$
C00672
                    3D
 Structure written by MMmdl.
 22 22  0  0  1  0            999 V2000
    1.8388    2.1142    2.2025 C   0  0  1  0  0  0
    2.4862    1.9248    3.4567 O   0  0  0  0  0  0
    2.0849    0.8330    1.4146 C   0  0  0  0  0  0
    0.4568    2.3975    2.3509 O   0  0  0  0  0  0
    2.8337    0.5691    3.6608 C   0  0  1  0  0  0
    2.2283   -0.2206    2.4904 C   0  0  1  0  0  0
    0.0240    4.0742    2.8294 P   0  0  0  0  0  0
    4.3555    0.3752    3.7470 C   0  0  0  0  0  0
    0.9781   -0.7821    2.8358 O   0  0  0  0  0  0
    0.8443    4.9361    1.8427 O   0  0  0  0  0  0
    4.7989    0.5014    5.0827 O   0  0  0  0  0  0
    2.3313    2.9337    1.6778 H   0  0  0  0  0  0
    1.2129    0.6097    0.7974 H   0  0  0  0  0  0
    2.9564    0.8959    0.7624 H   0  0  0  0  0  0
    2.3525    0.2342    4.5818 H   0  0  0  0  0  0
    2.9182   -1.0005    2.1649 H   0  0  0  0  0  0
    4.6471   -0.5992    3.3539 H   0  0  0  0  0  0
    4.8612    1.1299    3.1441 H   0  0  0  0  0  0
    1.0901   -1.2795    3.6324 H   0  0  0  0  0  0
    4.7399   -0.3448    5.4998 H   0  0  0  0  0  0
   -1.5069    4.0805    2.6218 O   0  5  0  0  0  0
    0.5001    4.1055    4.2984 O   0  5  0  0  0  0
  1  2  1  0  0  0
  1  3  1  0  0  0
  1  4  1  0  0  0
  1 12  1  0  0  0
  2  5  1  0  0  0
  3  6  1  0  0  0
  3 13  1  0  0  0
  3 14  1  0  0  0
  4  7  1  0  0  0
  5  8  1  0  0  0
  5  6  1  0  0  0
  5 15  1  0  0  0
  6  9  1  0  0  0
  6 16  1  0  0  0
  7 10  2  0  0  0
  7 21  1  0  0  0
  7 22  1  0  0  0
  8 11  1  0  0  0
  8 17  1  0  0  0
  8 18  1  0  0  0
  9 19  1  0  0  0
 11 20  1  0  0  0
M  CHG  2  21  -1  22  -1
M  END
> <i_ionizer_Ion_state_n>
3

> <i_ionizer_Tot_Q>
-2

> <s_ionizer_Ion_centers>
21_22

> <s_ionizer_Ion_types>
OM_OM

> <s_ionizer_Ion_ctrs_in>
10_11

> <r_ionizer_Ionization_penalty>
1.49178e-05

> <r_ionizer_Ionization_penalty_charging>
1.49178e-05

> <r_ionizer_Ionization_penalty_neutral>
0

> <s_st_Chirality_1>
5_R_2_6_8_15

> <s_st_Chirality_2>
6_S_9_5_3_16

> <s_st_Chirality_3>
1_R_4_2_3_12

> <i_mmod_Serial_Number-OPLS-2005>
316

> <i_i_glide_lignum>
314

> <r_i_docking_score>
-6.4378

> <r_i_glide_gscore>
-6.4378

> <r_i_glide_lipo>
-0.373197

> <r_i_glide_hbond>
-1.7959

> <r_i_glide_metal>
0

> <r_i_glide_eburp>
-2.58108

> <r_i_glide_evdw>
-12.5608

> <r_i_glide_ecoul>
-12.4947

> <r_i_glide_erotb>
0.845987

> <r_i_glide_esite>
-0.279269

> <r_i_glide_emodel>
-56.7451

> <r_i_glide_energy>
-25.0555

> <r_i_glide_einternal>
4.50109

> <i_i_glide_confnum>
13

> <i_i_glide_posenum>
942

$$$$
C04282
                    3D
 Structure written by MMmdl.
 15 15  0  0  1  0            999 V2000
    1.7315    1.7206    3.7069 C   0  0  0  0  0  0
    3.2360    1.8191    3.6336 C   0  0  0  0  0  0
    1.2999    0.5711    4.0346 N   0  0  0  0  0  0
    0.8904    2.9325    3.4033 C   0  0  0  0  0  0
    3.6292    0.3515    3.6236 C   0  0  2  0  0  0
    2.4138   -0.3237    4.2676 C   0  0  0  0  0  0
    0.0987    3.3002    4.3000 O   0  0  0  0  0  0
    4.8430    0.1007    4.3018 O   0  0  0  0  0  0
    3.5723    2.3419    2.7372 H   0  0  0  0  0  0
    3.6048    2.3441    4.5159 H   0  0  0  0  0  0
    3.7245    0.0104    2.5912 H   0  0  0  0  0  0
    2.5526   -0.4589    5.3416 H   0  0  0  0  0  0
    2.2295   -1.3065    3.8322 H   0  0  0  0  0  0
    4.8167   -0.7776    4.6498 H   0  0  0  0  0  0
    1.0547    3.4621    2.2812 O   0  5  0  0  0  0
  1  2  1  0  0  0
  1  3  2  0  0  0
  1  4  1  0  0  0
  2  5  1  0  0  0
  2  9  1  0  0  0
  2 10  1  0  0  0
  3  6  1  0  0  0
  4  7  2  0  0  0
  4 15  1  0  0  0
  5  8  1  0  0  0
  5  6  1  0  0  0
  5 11  1  0  0  0
  6 12  1  0  0  0
  6 13  1  0  0  0
  8 14  1  0  0  0
M  CHG  1  15  -1
M  END
> <i_ionizer_Ion_state_n>
1

> <i_ionizer_Tot_Q>
-1

> <s_ionizer_Ion_centers>
15

> <s_ionizer_Ion_types>
OM

> <s_ionizer_Ion_ctrs_in>
7

> <r_ionizer_Ionization_penalty>
0.00059219

> <r_ionizer_Ionization_penalty_charging>
0.00059219

> <r_ionizer_Ionization_penalty_neutral>
0

> <s_st_Chirality_1>
5_R_8_6_2_11

> <s_st_EZ_1>
4_1_3_6_E

> <i_mmod_Serial_Number-OPLS-2005>
588

> <i_i_glide_lignum>
582

> <r_i_docking_score>
-6.43628

> <r_i_glide_gscore>
-6.43628

> <r_i_glide_lipo>
-0.300429

> <r_i_glide_hbond>
-1.15

> <r_i_glide_metal>
0

> <r_i_glide_eburp>
-2.5

> <r_i_glide_evdw>
-14.5912

> <r_i_glide_ecoul>
-8.66772

> <r_i_glide_erotb>
0

> <r_i_glide_esite>
-0.451784

> <r_i_glide_emodel>
-45.1137

> <r_i_glide_energy>
-23.2589

> <r_i_glide_einternal>
1.23724

> <i_i_glide_confnum>
1

> <i_i_glide_posenum>
992

$$$$
C00242
                    3D
 Structure written by MMmdl.
 16 17  0  0  1  0            999 V2000
    3.1806    2.5064    3.4987 C   0  0  0  0  0  0
    2.0387    1.7351    3.5772 C   0  0  0  0  0  0
    4.4366    2.1632    3.9155 N   0  0  0  0  0  0
    2.8076    3.6933    2.9169 N   0  0  0  0  0  0
    2.1144    0.4201    4.1488 C   0  0  0  0  0  0
    0.9548    2.4311    3.0488 N   0  0  0  0  0  0
    4.5071    0.9532    4.4416 C   0  0  0  0  0  0
    1.4623    3.5739    2.6762 C   0  0  0  0  0  0
    3.4129    0.0996    4.5651 N   0  0  0  0  0  0
    1.2120   -0.4005    4.2999 O   0  0  0  0  0  0
    5.6851    0.4999    4.8879 N   0  0  0  0  0  0
    3.4221    4.4703    2.7219 H   0  0  0  0  0  0
    0.8734    4.3557    2.2187 H   0  0  0  0  0  0
    3.5403   -0.8122    4.9776 H   0  0  0  0  0  0
    5.7653   -0.4207    5.2938 H   0  0  0  0  0  0
    6.5011    1.0905    4.8151 H   0  0  0  0  0  0
  1  2  2  0  0  0
  1  3  1  0  0  0
  1  4  1  0  0  0
  2  5  1  0  0  0
  2  6  1  0  0  0
  3  7  2  0  0  0
  4  8  1  0  0  0
  4 12  1  0  0  0
  5  9  1  0  0  0
  5 10  2  0  0  0
  6  8  2  0  0  0
  7 11  1  0  0  0
  7  9  1  0  0  0
  8 13  1  0  0  0
  9 14  1  0  0  0
 11 15  1  0  0  0
 11 16  1  0  0  0
M  END
> <i_ionizer_Ion_state_n>
0

> <i_ionizer_Tot_Q>
0

> <s_ionizer_Ion_centers>


> <s_ionizer_Ion_types>


> <s_ionizer_Ion_ctrs_in>


> <r_ionizer_Ionization_penalty>
1.87357e-05

> <r_ionizer_Ionization_penalty_charging>
0

> <r_ionizer_Ionization_penalty_neutral>
1.87357e-05

> <i_mmod_Serial_Number-OPLS-2005>
158

> <i_i_glide_lignum>
156

> <r_i_docking_score>
-6.43326

> <r_i_glide_gscore>
-6.43326

> <r_i_glide_lipo>
-0.193953

> <r_i_glide_hbond>
-0.854493

> <r_i_glide_metal>
0

> <r_i_glide_eburp>
-2.5

> <r_i_glide_evdw>
-23.1717

> <r_i_glide_ecoul>
-7.8069

> <r_i_glide_erotb>
0

> <r_i_glide_esite>
-0.250385

> <r_i_glide_emodel>
-42.304

> <r_i_glide_energy>
-30.9786

> <r_i_glide_einternal>
0

> <i_i_glide_confnum>
1

> <i_i_glide_posenum>
554

$$$$
C01094
                    3D
 Structure written by MMmdl.
 27 27  0  0  1  0            999 V2000
    1.9590    0.8427    2.5847 C   0  0  2  0  0  0
    2.5959    0.4671    3.9313 C   0  0  2  0  0  0
    3.0229    1.3709    1.8618 O   0  0  0  0  0  0
    0.8484    1.8954    2.7155 C   0  0  0  0  0  0
    1.4266   -0.3038    1.9550 O   0  0  0  0  0  0
    3.9340   -0.0990    3.4814 C   0  0  1  0  0  0
    1.8456   -0.4722    4.6802 O   0  0  0  0  0  0
    4.2396    0.7106    2.2069 C   0  0  1  0  0  0
    1.3519    3.0375    3.3889 O   0  0  0  0  0  0
    4.9284    0.1150    4.4639 O   0  0  0  0  0  0
    4.7164   -0.1401    1.0193 C   0  0  0  0  0  0
    0.4588    4.5620    3.0929 P   0  0  0  0  0  0
    4.9846    0.6836   -0.0970 O   0  0  0  0  0  0
    1.0259    4.9923    1.7217 O   0  0  0  0  0  0
    2.7441    1.3804    4.5106 H   0  0  0  0  0  0
    0.4985    2.1791    1.7226 H   0  0  0  0  0  0
    0.0012    1.4599    3.2473 H   0  0  0  0  0  0
    1.0867   -0.0166    1.1200 H   0  0  0  0  0  0
    3.8482   -1.1629    3.2534 H   0  0  0  0  0  0
    2.3475   -0.7020    5.4470 H   0  0  0  0  0  0
    4.9671    1.4988    2.4087 H   0  0  0  0  0  0
    4.9026   -0.6103    5.0700 H   0  0  0  0  0  0
    5.6080   -0.7121    1.2778 H   0  0  0  0  0  0
    3.9433   -0.8572    0.7418 H   0  0  0  0  0  0
    4.8698    0.1702   -0.8823 H   0  0  0  0  0  0
   -1.0151    4.0996    3.0983 O   0  5  0  0  0  0
    0.9014    5.4143    4.3025 O   0  5  0  0  0  0
  1  2  1  0  0  0
  1  3  1  0  0  0
  1  4  1  0  0  0
  1  5  1  0  0  0
  2  6  1  0  0  0
  2  7  1  0  0  0
  2 15  1  0  0  0
  3  8  1  0  0  0
  4  9  1  0  0  0
  4 16  1  0  0  0
  4 17  1  0  0  0
  5 18  1  0  0  0
  6 10  1  0  0  0
  6  8  1  0  0  0
  6 19  1  0  0  0
  7 20  1  0  0  0
  8 11  1  0  0  0
  8 21  1  0  0  0
  9 12  1  0  0  0
 10 22  1  0  0  0
 11 13  1  0  0  0
 11 23  1  0  0  0
 11 24  1  0  0  0
 12 14  2  0  0  0
 12 26  1  0  0  0
 12 27  1  0  0  0
 13 25  1  0  0  0
M  CHG  2  26  -1  27  -1
M  END
> <i_ionizer_Ion_state_n>
3

> <i_ionizer_Tot_Q>
-2

> <s_ionizer_Ion_centers>
26_27

> <s_ionizer_Ion_types>
OM_OM

> <s_ionizer_Ion_ctrs_in>
14_15

> <r_ionizer_Ionization_penalty>
1.49178e-05

> <r_ionizer_Ionization_penalty_charging>
1.49178e-05

> <r_ionizer_Ionization_penalty_neutral>
0

> <s_st_Chirality_1>
2_S_7_1_6_15

> <s_st_Chirality_2>
6_R_10_2_8_19

> <s_st_Chirality_3>
8_R_3_6_11_21

> <s_st_Chirality_4>
1_R_3_5_2_4

> <i_mmod_Serial_Number-OPLS-2005>
390

> <i_i_glide_lignum>
386

> <r_i_docking_score>
-6.43173

> <r_i_glide_gscore>
-6.43173

> <r_i_glide_lipo>
-0.459748

> <r_i_glide_hbond>
-1.99025

> <r_i_glide_metal>
0

> <r_i_glide_eburp>
-1.8324

> <r_i_glide_evdw>
-18.9525

> <r_i_glide_ecoul>
-13.2123

> <r_i_glide_erotb>
0.9087

> <r_i_glide_esite>
-0.220602

> <r_i_glide_emodel>
-68.4221

> <r_i_glide_energy>
-32.1648

> <r_i_glide_einternal>
6.34569

> <i_i_glide_confnum>
6

> <i_i_glide_posenum>
436

$$$$
C01220
                    3D
 Structure written by MMmdl.
 30 30  0  0  1  0            999 V2000
    6.4456   -0.1975    0.3395 P   0  0  0  0  0  0
    5.4257   -0.2796    1.8179 O   0  0  0  0  0  0
    7.8829   -0.3454    0.8885 O   0  0  0  0  0  0
    4.0688    0.1447    1.7137 C   0  0  0  0  0  0
    3.3819    0.0392    3.0935 C   0  0  1  0  0  0
    3.9920    1.5815    1.1456 C   0  0  1  0  0  0
    1.9262    0.5657    3.0482 C   0  0  2  0  0  0
    3.3002   -1.3294    3.4459 O   0  0  0  0  0  0
    2.5234    2.0503    1.0617 C   0  0  1  0  0  0
    4.6974    2.4656    2.0019 O   0  0  0  0  0  0
    1.8212    1.9874    2.4366 C   0  0  0  0  0  0
    1.4426    0.6389    4.3749 O   0  0  0  0  0  0
    2.4919    3.3853    0.5945 O   0  0  0  0  0  0
    0.4823    2.4799    2.3029 O   0  0  0  0  0  0
    0.0259    4.1379    2.8331 P   0  0  0  0  0  0
    0.8285    5.0531    1.8840 O   0  0  0  0  0  0
    3.5444   -0.5245    1.0303 H   0  0  0  0  0  0
    3.9629    0.5775    3.8437 H   0  0  0  0  0  0
    4.4377    1.6316    0.1525 H   0  0  0  0  0  0
    1.3288   -0.1487    2.4841 H   0  0  0  0  0  0
    3.9021   -1.4745    4.1598 H   0  0  0  0  0  0
    2.0063    1.4299    0.3327 H   0  0  0  0  0  0
    4.2823    2.4272    2.8499 H   0  0  0  0  0  0
    2.3236    2.6810    3.1126 H   0  0  0  0  0  0
    1.7379   -0.1519    4.8118 H   0  0  0  0  0  0
    3.0564    3.4223   -0.1644 H   0  0  0  0  0  0
    5.9147   -1.3913   -0.4851 O   0  5  0  0  0  0
    6.0830    1.2013   -0.2068 O   0  5  0  0  0  0
   -1.5062    4.1138    2.6302 O   0  5  0  0  0  0
    0.5028    4.1224    4.3016 O   0  5  0  0  0  0
  1  2  1  0  0  0
  1  3  2  0  0  0
  1 27  1  0  0  0
  1 28  1  0  0  0
  2  4  1  0  0  0
  4  5  1  0  0  0
  4  6  1  0  0  0
  4 17  1  0  0  0
  5  7  1  0  0  0
  5  8  1  0  0  0
  5 18  1  0  0  0
  6  9  1  0  0  0
  6 10  1  0  0  0
  6 19  1  0  0  0
  7 11  1  0  0  0
  7 12  1  0  0  0
  7 20  1  0  0  0
  8 21  1  0  0  0
  9 13  1  0  0  0
  9 11  1  0  0  0
  9 22  1  0  0  0
 10 23  1  0  0  0
 11 14  1  0  0  0
 11 24  1  0  0  0
 12 25  1  0  0  0
 13 26  1  0  0  0
 14 15  1  0  0  0
 15 16  2  0  0  0
 15 29  1  0  0  0
 15 30  1  0  0  0
M  CHG  4  27  -1  28  -1  29  -1  30  -1
M  END
> <i_ionizer_Ion_state_n>
15

> <i_ionizer_Tot_Q>
-4

> <s_ionizer_Ion_centers>
27_28_29_30

> <s_ionizer_Ion_types>
OM_OM_OM_OM

> <s_ionizer_Ion_ctrs_in>
3_4_18_19

> <r_ionizer_Ionization_penalty>
2.98356e-05

> <r_ionizer_Ionization_penalty_charging>
2.98356e-05

> <r_ionizer_Ionization_penalty_neutral>
0

> <s_st_Chirality_1>
5_R_8_4_7_18

> <s_st_Chirality_2>
6_R_10_4_9_19

> <s_st_Chirality_3>
7_R_12_11_5_20

> <s_st_Chirality_4>
9_S_13_11_6_22

> <i_mmod_Serial_Number-OPLS-2005>
424

> <i_i_glide_lignum>
420

> <r_i_docking_score>
-6.42738

> <r_i_glide_gscore>
-6.42738

> <r_i_glide_lipo>
-0.51961

> <r_i_glide_hbond>
-1.85734

> <r_i_glide_metal>
0

> <r_i_glide_eburp>
-1.64177

> <r_i_glide_evdw>
-17.3926

> <r_i_glide_ecoul>
-13.4545

> <r_i_glide_erotb>
0.382088

> <r_i_glide_esite>
-0.0538892

> <r_i_glide_emodel>
-76.8671

> <r_i_glide_energy>
-30.8471

> <r_i_glide_einternal>
4.892

> <i_i_glide_confnum>
1

> <i_i_glide_posenum>
275

$$$$
C01262
                    3D
 Structure written by MMmdl.
 34 34  0  0  1  0            999 V2000
    3.1246    1.5194    2.9220 C   0  0  0  0  0  0
    2.7537    2.9208    2.5236 C   0  0  0  0  0  0
    2.9331    0.4363    2.0942 N   0  0  0  0  0  0
    3.6684    1.0069    4.0767 C   0  0  0  0  0  0
    1.2298    3.1833    2.4649 C   0  0  2  0  0  0
    3.3471   -0.6887    2.6909 C   0  0  0  0  0  0
    2.3711    0.4362    0.7415 C   0  0  0  0  0  0
    1.0173    4.6304    2.4507 N   0  0  0  0  0  0
    0.5591    2.5892    3.7170 C   0  0  0  0  0  0
   -0.1767    5.2399    2.3861 C   0  0  0  0  0  0
    0.8984    1.4363    4.0668 O   0  0  0  0  0  0
   -0.1569    6.7698    2.3306 C   0  0  0  0  0  0
   -1.2468    4.6319    2.3706 O   0  0  0  0  0  0
   -1.5009    7.3588    1.8674 C   0  0  0  0  0  0
    3.2333    3.6235    3.2072 H   0  0  0  0  0  0
    3.1894    3.1084    1.5415 H   0  0  0  0  0  0
    3.9764    1.4978    4.9890 H   0  0  0  0  0  0
    0.8084    2.7368    1.5620 H   0  0  0  0  0  0
    3.3239   -1.6820    2.2789 H   0  0  0  0  0  0
    2.2010   -0.5868    0.4036 H   0  0  0  0  0  0
    1.4232    0.9750    0.7464 H   0  0  0  0  0  0
    3.0699    0.9304    0.0660 H   0  0  0  0  0  0
    1.8377    5.2043    2.5777 H   0  0  0  0  0  0
    0.0932    7.1593    3.3189 H   0  0  0  0  0  0
    0.6433    7.0796    1.6575 H   0  0  0  0  0  0
   -1.7546    7.0008    0.8686 H   0  0  0  0  0  0
   -2.3052    7.0467    2.5353 H   0  0  0  0  0  0
   -2.3560    9.1853    1.5316 H   0  0  0  0  0  0
   -1.2622    9.1825    2.7646 H   0  0  0  0  0  0
    3.7958   -0.3429    3.8992 N   0  3  0  0  0  0
    4.1775   -0.9860    4.5817 H   0  0  0  0  0  0
   -0.2957    3.2991    4.2899 O   0  5  0  0  0  0
   -1.4612    8.8309    1.8389 N   0  3  0  0  0  0
   -0.7420    9.1382    1.1998 H   0  0  0  0  0  0
  1  2  1  0  0  0
  1  3  1  0  0  0
  1  4  2  0  0  0
  2  5  1  0  0  0
  2 15  1  0  0  0
  2 16  1  0  0  0
  3  6  1  0  0  0
  3  7  1  0  0  0
  4 17  1  0  0  0
  4 30  1  0  0  0
  5  8  1  0  0  0
  5  9  1  0  0  0
  5 18  1  0  0  0
  6 19  1  0  0  0
  6 30  2  0  0  0
  7 20  1  0  0  0
  7 21  1  0  0  0
  7 22  1  0  0  0
  8 10  1  0  0  0
  8 23  1  0  0  0
  9 11  2  0  0  0
  9 32  1  0  0  0
 10 12  1  0  0  0
 10 13  2  0  0  0
 12 14  1  0  0  0
 12 24  1  0  0  0
 12 25  1  0  0  0
 14 26  1  0  0  0
 14 27  1  0  0  0
 14 33  1  0  0  0
 28 33  1  0  0  0
 29 33  1  0  0  0
 30 31  1  0  0  0
 33 34  1  0  0  0
M  CHG  3  30   1  32  -1  33   1
M  END
> <i_ionizer_Ion_state_n>
7

> <i_ionizer_Tot_Q>
1

> <s_ionizer_Ion_centers>
30_32_33

> <s_ionizer_Ion_types>
N4_OM_N5

> <s_ionizer_Ion_ctrs_in>
8_12_17

> <r_ionizer_Ionization_penalty>
0.411459

> <r_ionizer_Ionization_penalty_charging>
0.411459

> <r_ionizer_Ionization_penalty_neutral>
0

> <s_st_Chirality_1>
5_S_8_9_2_18

> <i_mmod_Serial_Number-OPLS-2005>
436

> <i_i_glide_lignum>
432

> <r_i_docking_score>
-6.41898

> <r_i_glide_gscore>
-6.41898

> <r_i_glide_lipo>
-0.535696

> <r_i_glide_hbond>
-2.11479

> <r_i_glide_metal>
0

> <r_i_glide_eburp>
-1.84527

> <r_i_glide_evdw>
-18.3483

> <r_i_glide_ecoul>
-21.2905

> <r_i_glide_erotb>
1.70028

> <r_i_glide_esite>
-0.0265844

> <r_i_glide_emodel>
-100.909

> <r_i_glide_energy>
-39.6388

> <r_i_glide_einternal>
4.77642

> <i_i_glide_confnum>
3

> <i_i_glide_posenum>
134

$$$$
C00330
                    3D
 Structure written by MMmdl.
 32 34  0  0  1  0            999 V2000
    2.4937    2.8464    2.8684 N   0  0  0  0  0  0
    1.9006    3.9686    2.3268 C   0  0  0  0  0  0
    3.9293    2.4488    2.7031 C   0  0  2  0  0  0
    1.4726    2.1903    3.5170 C   0  0  0  0  0  0
    0.5746    3.9380    2.7104 C   0  0  0  0  0  0
    2.5069    4.9271    1.5598 N   0  0  0  0  0  0
    3.9660    1.1509    2.1828 O   0  0  0  0  0  0
    4.6170    2.3779    4.0665 C   0  0  0  0  0  0
    0.3219    2.8008    3.4688 N   0  0  0  0  0  0
   -0.3055    4.9966    2.3029 C   0  0  0  0  0  0
    1.6982    5.9011    1.1835 C   0  0  0  0  0  0
    4.2959    0.2046    3.2044 C   0  0  1  0  0  0
    4.2349    0.9860    4.5224 C   0  0  1  0  0  0
    0.3500    5.9594    1.5261 N   0  0  0  0  0  0
   -1.5012    5.1340    2.5516 O   0  0  0  0  0  0
    2.1788    6.8987    0.4312 N   0  0  0  0  0  0
    3.3621   -1.0146    3.1397 C   0  0  0  0  0  0
    5.1538    0.5002    5.4789 O   0  0  0  0  0  0
    2.0382   -0.6337    3.4511 O   0  0  0  0  0  0
    4.3454    3.1892    2.0189 H   0  0  0  0  0  0
    1.5975    1.2460    4.0249 H   0  0  0  0  0  0
    5.6939    2.4602    3.9110 H   0  0  0  0  0  0
    4.2969    3.1702    4.7433 H   0  0  0  0  0  0
    5.3236   -0.1049    3.0050 H   0  0  0  0  0  0
    3.2242    0.9862    4.9335 H   0  0  0  0  0  0
   -0.2099    6.7344    1.2040 H   0  0  0  0  0  0
    3.1524    6.8907    0.1634 H   0  0  0  0  0  0
    1.5810    7.6546    0.1312 H   0  0  0  0  0  0
    3.3829   -1.4789    2.1540 H   0  0  0  0  0  0
    3.6809   -1.7680    3.8604 H   0  0  0  0  0  0
    4.9893   -0.4229    5.6044 H   0  0  0  0  0  0
    2.0078   -0.3596    4.3554 H   0  0  0  0  0  0
  1  2  1  0  0  0
  1  3  1  0  0  0
  1  4  1  0  0  0
  2  5  2  0  0  0
  2  6  1  0  0  0
  3  7  1  0  0  0
  3  8  1  0  0  0
  3 20  1  0  0  0
  4  9  2  0  0  0
  4 21  1  0  0  0
  5 10  1  0  0  0
  5  9  1  0  0  0
  6 11  2  0  0  0
  7 12  1  0  0  0
  8 13  1  0  0  0
  8 22  1  0  0  0
  8 23  1  0  0  0
 10 14  1  0  0  0
 10 15  2  0  0  0
 11 16  1  0  0  0
 11 14  1  0  0  0
 12 17  1  0  0  0
 12 13  1  0  0  0
 12 24  1  0  0  0
 13 18  1  0  0  0
 13 25  1  0  0  0
 14 26  1  0  0  0
 16 27  1  0  0  0
 16 28  1  0  0  0
 17 19  1  0  0  0
 17 29  1  0  0  0
 17 30  1  0  0  0
 18 31  1  0  0  0
 19 32  1  0  0  0
M  END
> <i_ionizer_Ion_state_n>
0

> <i_ionizer_Tot_Q>
0

> <s_ionizer_Ion_centers>


> <s_ionizer_Ion_types>


> <s_ionizer_Ion_ctrs_in>


> <r_ionizer_Ionization_penalty>
1.87357e-05

> <r_ionizer_Ionization_penalty_charging>
0

> <r_ionizer_Ionization_penalty_neutral>
1.87357e-05

> <s_st_Chirality_1>
3_R_7_1_8_20

> <s_st_Chirality_2>
12_R_7_13_17_24

> <s_st_Chirality_3>
13_S_18_12_8_25

> <i_mmod_Serial_Number-OPLS-2005>
195

> <i_i_glide_lignum>
193

> <r_i_docking_score>
-6.40279

> <r_i_glide_gscore>
-6.40279

> <r_i_glide_lipo>
-0.582757

> <r_i_glide_hbond>
-0.747119

> <r_i_glide_metal>
0

> <r_i_glide_eburp>
-1.76329

> <r_i_glide_evdw>
-28.9242

> <r_i_glide_ecoul>
-10.5337

> <r_i_glide_erotb>
0.570583

> <r_i_glide_esite>
-0.512899

> <r_i_glide_emodel>
-59.9459

> <r_i_glide_energy>
-39.4579

> <r_i_glide_einternal>
4.24333

> <i_i_glide_confnum>
4

> <i_i_glide_posenum>
94

$$$$
C00636
                    3D
 Structure written by MMmdl.
 27 27  0  0  1  0            999 V2000
    1.4660    1.9138    2.5101 C   0  0  1  0  0  0
    2.4640    1.4712    1.5915 O   0  0  0  0  0  0
    1.2404    0.8021    3.5621 C   0  0  2  0  0  0
    1.8175    3.1620    3.0960 O   0  0  0  0  0  0
    3.7512    1.2360    2.1575 C   0  0  1  0  0  0
    2.5638    0.4026    4.2359 C   0  0  2  0  0  0
    0.6215   -0.3056    2.9328 O   0  0  0  0  0  0
    0.5890    4.4710    3.0887 P   0  0  0  0  0  0
    3.6463    0.0844    3.1887 C   0  0  2  0  0  0
    4.6782    0.9241    0.9662 C   0  0  0  0  0  0
    2.3407   -0.7000    5.0987 O   0  0  0  0  0  0
   -0.7395    3.6999    3.2569 O   0  0  0  0  0  0
    4.8812   -0.0709    3.8630 O   0  0  0  0  0  0
    5.0866    2.0990    0.2954 O   0  0  0  0  0  0
    0.5529    2.0651    1.9335 H   0  0  0  0  0  0
    0.5333    1.1243    4.3244 H   0  0  0  0  0  0
    4.0867    2.1548    2.6425 H   0  0  0  0  0  0
    2.8944    1.2440    4.8476 H   0  0  0  0  0  0
    0.5445   -0.9906    3.5796 H   0  0  0  0  0  0
    3.4037   -0.8460    2.6733 H   0  0  0  0  0  0
    5.5499    0.3522    1.2852 H   0  0  0  0  0  0
    4.1460    0.3105    0.2384 H   0  0  0  0  0  0
    3.1770   -0.9944    5.4247 H   0  0  0  0  0  0
    4.7989   -0.7852    4.4751 H   0  0  0  0  0  0
    4.3231    2.6280    0.1228 H   0  0  0  0  0  0
    1.0371    5.3224    4.2975 O   0  5  0  0  0  0
    0.8254    5.1035    1.6999 O   0  5  0  0  0  0
  1  2  1  0  0  0
  1  3  1  0  0  0
  1  4  1  0  0  0
  1 15  1  0  0  0
  2  5  1  0  0  0
  3  6  1  0  0  0
  3  7  1  0  0  0
  3 16  1  0  0  0
  4  8  1  0  0  0
  5  9  1  0  0  0
  5 10  1  0  0  0
  5 17  1  0  0  0
  6 11  1  0  0  0
  6  9  1  0  0  0
  6 18  1  0  0  0
  7 19  1  0  0  0
  8 12  2  0  0  0
  8 26  1  0  0  0
  8 27  1  0  0  0
  9 13  1  0  0  0
  9 20  1  0  0  0
 10 14  1  0  0  0
 10 21  1  0  0  0
 10 22  1  0  0  0
 11 23  1  0  0  0
 13 24  1  0  0  0
 14 25  1  0  0  0
M  CHG  2  26  -1  27  -1
M  END
> <i_ionizer_Ion_state_n>
3

> <i_ionizer_Tot_Q>
-2

> <s_ionizer_Ion_centers>
26_27

> <s_ionizer_Ion_types>
OM_OM

> <s_ionizer_Ion_ctrs_in>
12_13

> <r_ionizer_Ionization_penalty>
1.49178e-05

> <r_ionizer_Ionization_penalty_charging>
1.49178e-05

> <r_ionizer_Ionization_penalty_neutral>
0

> <s_st_Chirality_1>
1_R_4_2_3_15

> <s_st_Chirality_2>
3_S_7_1_6_16

> <s_st_Chirality_3>
5_R_2_9_10_17

> <s_st_Chirality_4>
6_S_11_3_9_18

> <s_st_Chirality_5>
9_R_13_6_5_20

> <i_mmod_Serial_Number-OPLS-2005>
302

> <i_i_glide_lignum>
300

> <r_i_docking_score>
-6.40257

> <r_i_glide_gscore>
-6.40257

> <r_i_glide_lipo>
-0.449496

> <r_i_glide_hbond>
-1.93601

> <r_i_glide_metal>
0

> <r_i_glide_eburp>
-1.8324

> <r_i_glide_evdw>
-18.4003

> <r_i_glide_ecoul>
-10.933

> <r_i_glide_erotb>
0.6058

> <r_i_glide_esite>
-0.225129

> <r_i_glide_emodel>
-59.8694

> <r_i_glide_energy>
-29.3333

> <r_i_glide_einternal>
9.09059

> <i_i_glide_confnum>
4

> <i_i_glide_posenum>
121

$$$$
C00052
                    3D
 Structure written by MMmdl.
 58 60  0  0  1  0            999 V2000
   -3.8455   10.3095    5.6059 C   0  0  2  0  0  0
   -3.6052   10.3020    7.0966 N   0  0  0  0  0  0
   -3.5629    9.0398    5.0935 O   0  0  0  0  0  0
   -2.9219   11.3296    4.9178 C   0  0  1  0  0  0
   -4.6888   10.5249    7.9707 C   0  0  0  0  0  0
   -2.3361   10.1091    7.6223 C   0  0  0  0  0  0
   -2.6850    9.1539    3.9795 C   0  0  1  0  0  0
   -1.8864   10.4236    4.2606 C   0  0  1  0  0  0
   -3.6447   12.1143    3.9848 O   0  0  0  0  0  0
   -4.4147   10.5042    9.3385 N   0  0  0  0  0  0
   -5.8326   10.7427    7.5738 O   0  0  0  0  0  0
   -2.0796   10.0893    8.9509 C   0  0  0  0  0  0
   -1.8341    7.8868    3.7985 C   0  0  0  0  0  0
   -1.2903   10.9856    3.1058 O   0  0  0  0  0  0
   -3.1577   10.2929    9.9121 C   0  0  0  0  0  0
   -1.1756    7.8876    2.5449 O   0  0  0  0  0  0
   -3.0289   10.2953   11.1341 O   0  0  0  0  0  0
   -1.2503    6.5351    1.5116 P   0  0  0  0  0  0
    0.1186    5.5985    1.8977 O   0  0  0  0  0  0
   -2.4471    5.7435    1.8769 O   0  0  0  0  0  0
    0.5805    4.5136    3.1254 P   0  0  0  0  0  0
    1.7613    3.5211    2.3885 O   0  0  0  0  0  0
   -0.5967    3.7003    3.5002 O   0  0  0  0  0  0
    2.9756    3.1355    3.0139 C   0  0  1  0  0  0
    2.7641    2.0553    3.9229 O   0  0  0  0  0  0
    4.0095    2.6312    1.9801 C   0  0  1  0  0  0
    2.1441    0.9000    3.3470 C   0  0  1  0  0  0
    3.4363    1.4337    1.2089 C   0  0  2  0  0  0
    4.4387    3.6548    1.1099 O   0  0  0  0  0  0
    3.0217    0.3295    2.2034 C   0  0  1  0  0  0
    1.8163   -0.1039    4.4683 C   0  0  0  0  0  0
    4.3757    0.9164    0.2809 O   0  0  0  0  0  0
    4.1685   -0.3055    2.7438 O   0  0  0  0  0  0
    0.9274   -1.0984    4.0031 O   0  0  0  0  0  0
   -4.9085   10.5110    5.4647 H   0  0  0  0  0  0
   -2.4626   12.0004    5.6443 H   0  0  0  0  0  0
   -1.5028    9.9824    6.9524 H   0  0  0  0  0  0
   -3.3026    9.3069    3.0928 H   0  0  0  0  0  0
   -1.1032   10.2000    4.9810 H   0  0  0  0  0  0
   -3.8544   11.5748    3.2379 H   0  0  0  0  0  0
   -5.1883   10.6583    9.9677 H   0  0  0  0  0  0
   -1.0696    9.9343    9.3026 H   0  0  0  0  0  0
   -2.4612    6.9977    3.8615 H   0  0  0  0  0  0
   -1.1021    7.8106    4.6036 H   0  0  0  0  0  0
   -1.9216   10.9616    2.4031 H   0  0  0  0  0  0
    3.3855    3.9757    3.5745 H   0  0  0  0  0  0
    4.9011    2.3113    2.5211 H   0  0  0  0  0  0
    1.1926    1.2170    2.9177 H   0  0  0  0  0  0
    2.5595    1.7589    0.6466 H   0  0  0  0  0  0
    3.7097    3.8911    0.5573 H   0  0  0  0  0  0
    2.4598   -0.4374    1.6690 H   0  0  0  0  0  0
    2.7156   -0.5653    4.8764 H   0  0  0  0  0  0
    1.3286    0.4107    5.2942 H   0  0  0  0  0  0
    3.9550    0.2355   -0.2219 H   0  0  0  0  0  0
    3.8798   -0.8970    3.4228 H   0  0  0  0  0  0
    0.7759   -1.7165    4.7017 H   0  0  0  0  0  0
   -1.1110    7.0275    0.1228 O   0  5  0  0  0  0
    1.2832    5.2950    4.1683 O   0  5  0  0  0  0
  1  2  1  0  0  0
  1  3  1  0  0  0
  1  4  1  0  0  0
  1 35  1  0  0  0
  2  5  1  0  0  0
  2  6  1  0  0  0
  3  7  1  0  0  0
  4  8  1  0  0  0
  4  9  1  0  0  0
  4 36  1  0  0  0
  5 10  1  0  0  0
  5 11  2  0  0  0
  6 12  2  0  0  0
  6 37  1  0  0  0
  7 13  1  0  0  0
  7  8  1  0  0  0
  7 38  1  0  0  0
  8 14  1  0  0  0
  8 39  1  0  0  0
  9 40  1  0  0  0
 10 15  1  0  0  0
 10 41  1  0  0  0
 12 15  1  0  0  0
 12 42  1  0  0  0
 13 16  1  0  0  0
 13 43  1  0  0  0
 13 44  1  0  0  0
 14 45  1  0  0  0
 15 17  2  0  0  0
 16 18  1  0  0  0
 18 19  1  0  0  0
 18 20  2  0  0  0
 18 57  1  0  0  0
 19 21  1  0  0  0
 21 22  1  0  0  0
 21 23  2  0  0  0
 21 58  1  0  0  0
 22 24  1  0  0  0
 24 25  1  0  0  0
 24 26  1  0  0  0
 24 46  1  0  0  0
 25 27  1  0  0  0
 26 28  1  0  0  0
 26 29  1  0  0  0
 26 47  1  0  0  0
 27 30  1  0  0  0
 27 31  1  0  0  0
 27 48  1  0  0  0
 28 32  1  0  0  0
 28 30  1  0  0  0
 28 49  1  0  0  0
 29 50  1  0  0  0
 30 33  1  0  0  0
 30 51  1  0  0  0
 31 34  1  0  0  0
 31 52  1  0  0  0
 31 53  1  0  0  0
 32 54  1  0  0  0
 33 55  1  0  0  0
 34 56  1  0  0  0
M  CHG  2  57  -1  58  -1
M  END
> <i_ionizer_Ion_state_n>
3

> <i_ionizer_Tot_Q>
-2

> <s_ionizer_Ion_centers>
57_58

> <s_ionizer_Ion_types>
OM_OM

> <s_ionizer_Ion_ctrs_in>
20_24

> <r_ionizer_Ionization_penalty>
1.49178e-05

> <r_ionizer_Ionization_penalty_charging>
1.49178e-05

> <r_ionizer_Ionization_penalty_neutral>
0

> <s_st_Chirality_1>
4_R_9_1_8_36

> <s_st_Chirality_2>
7_R_3_8_13_38

> <s_st_Chirality_3>
8_R_14_4_7_39

> <s_st_Chirality_4>
26_R_29_24_28_47

> <s_st_Chirality_5>
27_R_25_30_31_48

> <s_st_Chirality_6>
28_S_32_26_30_49

> <s_st_Chirality_7>
30_S_33_28_27_51

> <s_st_Chirality_8>
1_R_3_2_4_35

> <s_st_Chirality_9>
24_R_22_25_26_46

> <i_mmod_Serial_Number-OPLS-2005>
36

> <i_i_glide_lignum>
35

> <r_i_docking_score>
-6.40244

> <r_i_glide_gscore>
-6.40244

> <r_i_glide_lipo>
-0.777786

> <r_i_glide_hbond>
-1.92779

> <r_i_glide_metal>
0

> <r_i_glide_eburp>
-0.4

> <r_i_glide_evdw>
-35.7083

> <r_i_glide_ecoul>
-13.5406

> <r_i_glide_erotb>
0.576209

> <r_i_glide_esite>
0.337665

> <r_i_glide_emodel>
-99.4929

> <r_i_glide_energy>
-49.249

> <r_i_glide_einternal>
9.44225

> <i_i_glide_confnum>
70

> <i_i_glide_posenum>
939

$$$$
C05584
                    3D
 Structure written by MMmdl.
 23 23  0  0  1  0            999 V2000
    2.6426    3.4457    3.1943 C   0  0  0  0  0  0
    2.2451    2.0921    3.1701 C   0  0  0  0  0  0
    1.7310    4.5207    2.6080 C   0  0  2  0  0  0
    3.8856    3.7892    3.7668 C   0  0  0  0  0  0
    3.0642    1.0831    3.7169 C   0  0  0  0  0  0
    0.2829    4.3017    3.0922 C   0  0  0  0  0  0
    1.7767    4.5597    1.1933 O   0  0  0  0  0  0
    4.7215    2.7892    4.2964 C   0  0  0  0  0  0
    4.3227    1.4378    4.2697 C   0  0  0  0  0  0
    2.5984   -0.2097    3.6461 O   0  0  0  0  0  0
    0.1029    3.5945    4.1091 O   0  0  0  0  0  0
    5.1838    0.4971    4.7588 O   0  0  0  0  0  0
    1.7355   -0.6294    4.6938 C   0  0  0  0  0  0
    1.2963    1.8203    2.7314 H   0  0  0  0  0  0
    2.0514    5.4984    2.9691 H   0  0  0  0  0  0
    4.2051    4.8209    3.7896 H   0  0  0  0  0  0
    2.6663    4.7710    0.9505 H   0  0  0  0  0  0
    5.6774    3.0656    4.7164 H   0  0  0  0  0  0
    4.7775   -0.3463    4.8849 H   0  0  0  0  0  0
    1.0411   -1.3760    4.3087 H   0  0  0  0  0  0
    2.2992   -1.0952    5.5020 H   0  0  0  0  0  0
    1.1444    0.1932    5.1000 H   0  0  0  0  0  0
   -0.6276    4.8854    2.4608 O   0  5  0  0  0  0
  1  2  1  0  0  0
  1  3  1  0  0  0
  1  4  2  0  0  0
  2  5  2  0  0  0
  2 14  1  0  0  0
  3  6  1  0  0  0
  3  7  1  0  0  0
  3 15  1  0  0  0
  4  8  1  0  0  0
  4 16  1  0  0  0
  5  9  1  0  0  0
  5 10  1  0  0  0
  6 11  2  0  0  0
  6 23  1  0  0  0
  7 17  1  0  0  0
  8  9  2  0  0  0
  8 18  1  0  0  0
  9 12  1  0  0  0
 10 13  1  0  0  0
 12 19  1  0  0  0
 13 20  1  0  0  0
 13 21  1  0  0  0
 13 22  1  0  0  0
M  CHG  1  23  -1
M  END
> <i_ionizer_Ion_state_n>
1

> <i_ionizer_Tot_Q>
-1

> <s_ionizer_Ion_centers>
23

> <s_ionizer_Ion_types>
OM

> <s_ionizer_Ion_ctrs_in>
11

> <r_ionizer_Ionization_penalty>
0.00118438

> <r_ionizer_Ionization_penalty_charging>
0.00059219

> <r_ionizer_Ionization_penalty_neutral>
0.00059219

> <s_st_Chirality_1>
3_R_7_6_1_15

> <i_mmod_Serial_Number-OPLS-2005>
752

> <i_i_glide_lignum>
743

> <r_i_docking_score>
-6.3973

> <r_i_glide_gscore>
-6.3973

> <r_i_glide_lipo>
-0.733952

> <r_i_glide_hbond>
-1.14071

> <r_i_glide_metal>
0

> <r_i_glide_eburp>
-2.29417

> <r_i_glide_evdw>
-19.7958

> <r_i_glide_ecoul>
-7.89834

> <r_i_glide_erotb>
0.477876

> <r_i_glide_esite>
-0.332837

> <r_i_glide_emodel>
-51.9047

> <r_i_glide_energy>
-27.6942

> <r_i_glide_einternal>
4.10943

> <i_i_glide_confnum>
2

> <i_i_glide_posenum>
513

$$$$
C06644
                    3D
 Structure written by MMmdl.
 28 29  0  0  1  0            999 V2000
    2.7523    4.2062    2.4281 C   0  0  0  0  0  0
    3.6670    3.2048    3.0045 C   0  0  0  0  0  0
    1.3695    4.2114    2.7329 C   0  0  0  0  0  0
    3.2607    5.1556    1.5166 C   0  0  0  0  0  0
    3.8882    1.9620    2.2431 C   0  0  0  0  0  0
    4.2870    3.4426    4.1823 C   0  0  0  0  0  0
    0.5166    5.1729    2.1496 C   0  0  0  0  0  0
    0.8395    3.2854    3.5871 O   0  0  0  0  0  0
    2.4104    6.1143    0.9345 C   0  0  0  0  0  0
    3.4854    0.7231    2.7877 C   0  0  0  0  0  0
    4.4712    1.9891    0.9562 C   0  0  0  0  0  0
    4.0999    4.9001    5.0939 Cl  0  0  0  0  0  0
    5.3547    2.3349    4.9721 Cl  0  0  0  0  0  0
    1.0390    6.1272    1.2511 C   0  0  0  0  0  0
   -0.8161    5.1732    2.4550 O   0  0  0  0  0  0
    3.6757   -0.4712    2.0658 C   0  0  0  0  0  0
    4.6624    0.7959    0.2329 C   0  0  0  0  0  0
    0.0088    7.3110    0.5283 Cl  0  0  0  0  0  0
    4.2658   -0.4356    0.7881 C   0  0  0  0  0  0
    4.4992   -1.8980   -0.0973 Cl  0  0  0  0  0  0
    4.3112    5.1527    1.2642 H   0  0  0  0  0  0
    1.4756    2.6238    3.8163 H   0  0  0  0  0  0
    2.8125    6.8399    0.2426 H   0  0  0  0  0  0
    3.0313    0.6846    3.7673 H   0  0  0  0  0  0
    4.7721    2.9292    0.5172 H   0  0  0  0  0  0
   -1.2846    5.8772    2.0317 H   0  0  0  0  0  0
    3.3676   -1.4138    2.4938 H   0  0  0  0  0  0
    5.1114    0.8274   -0.7489 H   0  0  0  0  0  0
  1  2  1  0  0  0
  1  3  2  0  0  0
  1  4  1  0  0  0
  2  5  1  0  0  0
  2  6  2  0  0  0
  3  7  1  0  0  0
  3  8  1  0  0  0
  4  9  2  0  0  0
  4 21  1  0  0  0
  5 10  1  0  0  0
  5 11  2  0  0  0
  6 12  1  0  0  0
  6 13  1  0  0  0
  7 14  2  0  0  0
  7 15  1  0  0  0
  8 22  1  0  0  0
  9 14  1  0  0  0
  9 23  1  0  0  0
 10 16  2  0  0  0
 10 24  1  0  0  0
 11 17  1  0  0  0
 11 25  1  0  0  0
 14 18  1  0  0  0
 15 26  1  0  0  0
 16 19  1  0  0  0
 16 27  1  0  0  0
 17 19  2  0  0  0
 17 28  1  0  0  0
 19 20  1  0  0  0
M  END
> <i_ionizer_Ion_state_n>
0

> <i_ionizer_Tot_Q>
0

> <s_ionizer_Ion_centers>


> <s_ionizer_Ion_types>


> <s_ionizer_Ion_ctrs_in>


> <r_ionizer_Ionization_penalty>
0.00118438

> <r_ionizer_Ionization_penalty_charging>
0

> <r_ionizer_Ionization_penalty_neutral>
0.00118438

> <i_mmod_Serial_Number-OPLS-2005>
879

> <i_i_glide_lignum>
867

> <r_i_docking_score>
-6.39552

> <r_i_glide_gscore>
-6.39552

> <r_i_glide_lipo>
-1.67351

> <r_i_glide_hbond>
0

> <r_i_glide_metal>
0

> <r_i_glide_eburp>
-1.13613

> <r_i_glide_evdw>
-33.7127

> <r_i_glide_ecoul>
-1.46291

> <r_i_glide_erotb>
0.3555

> <r_i_glide_esite>
-1.09807

> <r_i_glide_emodel>
-48.5289

> <r_i_glide_energy>
-35.1756

> <r_i_glide_einternal>
6.15135

> <i_i_glide_confnum>
2

> <i_i_glide_posenum>
996

$$$$
C00931
                    3D
 Structure written by MMmdl.
 29 29  0  0  1  0            999 V2000
    2.1633    1.7565    3.5128 C   0  0  0  0  0  0
    2.8626    3.0061    3.3993 C   0  0  0  0  0  0
    3.0178    0.8550    4.1098 C   0  0  0  0  0  0
    0.7473    1.5029    3.0232 C   0  0  0  0  0  0
    4.1083    2.8268    3.9380 C   0  0  0  0  0  0
    2.3127    4.2797    2.7926 C   0  0  0  0  0  0
    4.1914    1.5263    4.3635 N   0  0  0  0  0  0
    2.8778   -0.5809    4.5128 C   0  0  0  0  0  0
    0.7478    0.3944    1.9688 C   0  0  0  0  0  0
    0.9390    4.1113    2.1081 C   0  0  0  0  0  0
   -0.2837   -0.3110    1.9002 O   0  0  0  0  0  0
   -0.2167    3.9581    3.1047 C   0  0  0  0  0  0
   -1.3901    4.1002    2.6936 O   0  0  0  0  0  0
    0.1004    1.2049    3.8480 H   0  0  0  0  0  0
    0.3318    2.4227    2.6110 H   0  0  0  0  0  0
    4.9425    3.5026    4.0572 H   0  0  0  0  0  0
    2.2428    5.0239    3.5871 H   0  0  0  0  0  0
    3.0445    4.6518    2.0741 H   0  0  0  0  0  0
    5.0033    1.1230    4.8088 H   0  0  0  0  0  0
    3.5683   -1.2038    3.9431 H   0  0  0  0  0  0
    3.1386   -0.6988    5.5650 H   0  0  0  0  0  0
    0.7287    4.9723    1.4727 H   0  0  0  0  0  0
    0.9474    3.2313    1.4642 H   0  0  0  0  0  0
    1.4796   -2.0766    4.5107 H   0  0  0  0  0  0
    0.8958   -0.5941    4.9344 H   0  0  0  0  0  0
    1.5140   -1.0899    4.3011 N   0  3  0  0  0  0
    1.2304   -0.9257    3.3464 H   0  0  0  0  0  0
    1.7608    0.2806    1.2458 O   0  5  0  0  0  0
    0.1040    3.6990    4.2850 O   0  5  0  0  0  0
  1  2  1  0  0  0
  1  3  2  0  0  0
  1  4  1  0  0  0
  2  5  2  0  0  0
  2  6  1  0  0  0
  3  7  1  0  0  0
  3  8  1  0  0  0
  4  9  1  0  0  0
  4 14  1  0  0  0
  4 15  1  0  0  0
  5  7  1  0  0  0
  5 16  1  0  0  0
  6 10  1  0  0  0
  6 17  1  0  0  0
  6 18  1  0  0  0
  7 19  1  0  0  0
  8 20  1  0  0  0
  8 21  1  0  0  0
  8 26  1  0  0  0
  9 11  2  0  0  0
  9 28  1  0  0  0
 10 12  1  0  0  0
 10 22  1  0  0  0
 10 23  1  0  0  0
 12 13  2  0  0  0
 12 29  1  0  0  0
 24 26  1  0  0  0
 25 26  1  0  0  0
 26 27  1  0  0  0
M  CHG  3  26   1  28  -1  29  -1
M  END
> <i_ionizer_Ion_state_n>
7

> <i_ionizer_Tot_Q>
-1

> <s_ionizer_Ion_centers>
26_28_29

> <s_ionizer_Ion_types>
N5_OM_OM

> <s_ionizer_Ion_ctrs_in>
11_12_15

> <r_ionizer_Ionization_penalty>
0.00137171

> <r_ionizer_Ionization_penalty_charging>
0.00137171

> <r_ionizer_Ionization_penalty_neutral>
0

> <i_mmod_Serial_Number-OPLS-2005>
359

> <i_i_glide_lignum>
355

> <r_i_docking_score>
-6.39435

> <r_i_glide_gscore>
-6.39435

> <r_i_glide_lipo>
-0.714099

> <r_i_glide_hbond>
-1.65427

> <r_i_glide_metal>
0

> <r_i_glide_eburp>
-2.08162

> <r_i_glide_evdw>
-16.7911

> <r_i_glide_ecoul>
-12.1432

> <r_i_glide_erotb>
1.14677

> <r_i_glide_esite>
-0.533517

> <r_i_glide_emodel>
-68.4216

> <r_i_glide_energy>
-28.9343

> <r_i_glide_einternal>
5.67259

> <i_i_glide_confnum>
16

> <i_i_glide_posenum>
447

$$$$
C00780
                    3D
 Structure written by MMmdl.
 26 27  0  0  1  0            999 V2000
    3.4522    1.3985    3.7968 C   0  0  0  0  0  0
    2.9091    2.6830    3.5003 C   0  0  0  0  0  0
    4.7849    1.5818    4.3102 C   0  0  0  0  0  0
    2.6299    0.2748    3.5433 C   0  0  0  0  0  0
    3.8965    3.5881    3.8328 N   0  0  0  0  0  0
    1.6131    2.8433    2.9776 C   0  0  0  0  0  0
    5.0160    2.9343    4.3166 C   0  0  0  0  0  0
    5.7407    0.5159    4.7518 C   0  0  0  0  0  0
    1.3297    0.4236    3.0190 C   0  0  0  0  0  0
    0.8203    1.7065    2.7360 C   0  0  0  0  0  0
    5.8464    0.4343    6.2808 C   0  0  0  0  0  0
    0.5654   -0.6820    2.7863 O   0  0  0  0  0  0
    3.0056   -0.7150    3.7561 H   0  0  0  0  0  0
    3.8362    4.5927    3.7465 H   0  0  0  0  0  0
    1.2293    3.8296    2.7631 H   0  0  0  0  0  0
    5.8901    3.4882    4.6272 H   0  0  0  0  0  0
    5.4277   -0.4506    4.3543 H   0  0  0  0  0  0
    6.7262    0.7103    4.3264 H   0  0  0  0  0  0
   -0.1759    1.8231    2.3344 H   0  0  0  0  0  0
    6.0623    1.4179    6.6999 H   0  0  0  0  0  0
    4.8994    0.1031    6.7087 H   0  0  0  0  0  0
    0.8464   -1.4404    3.2751 H   0  0  0  0  0  0
    6.9512   -0.5305    7.7061 H   0  0  0  0  0  0
    6.7036   -1.4225    6.3420 H   0  0  0  0  0  0
    6.9067   -0.4991    6.6974 N   0  3  0  0  0  0
    7.7952   -0.1865    6.3325 H   0  0  0  0  0  0
  1  2  2  0  0  0
  1  3  1  0  0  0
  1  4  1  0  0  0
  2  5  1  0  0  0
  2  6  1  0  0  0
  3  7  2  0  0  0
  3  8  1  0  0  0
  4  9  2  0  0  0
  4 13  1  0  0  0
  5  7  1  0  0  0
  5 14  1  0  0  0
  6 10  2  0  0  0
  6 15  1  0  0  0
  7 16  1  0  0  0
  8 11  1  0  0  0
  8 17  1  0  0  0
  8 18  1  0  0  0
  9 12  1  0  0  0
  9 10  1  0  0  0
 10 19  1  0  0  0
 11 20  1  0  0  0
 11 21  1  0  0  0
 11 25  1  0  0  0
 12 22  1  0  0  0
 23 25  1  0  0  0
 24 25  1  0  0  0
 25 26  1  0  0  0
M  CHG  1  25   1
M  END
> <i_ionizer_Ion_state_n>
2

> <i_ionizer_Tot_Q>
1

> <s_ionizer_Ion_centers>
25

> <s_ionizer_Ion_types>
N5

> <s_ionizer_Ion_ctrs_in>
13

> <r_ionizer_Ionization_penalty>
0.000779521

> <r_ionizer_Ionization_penalty_charging>
0.000187331

> <r_ionizer_Ionization_penalty_neutral>
0.00059219

> <i_mmod_Serial_Number-OPLS-2005>
332

> <i_i_glide_lignum>
329

> <r_i_docking_score>
-6.39252

> <r_i_glide_gscore>
-6.39252

> <r_i_glide_lipo>
-1.00291

> <r_i_glide_hbond>
-0.760373

> <r_i_glide_metal>
0

> <r_i_glide_eburp>
-2.44524

> <r_i_glide_evdw>
-19.864

> <r_i_glide_ecoul>
-7.84451

> <r_i_glide_erotb>
0.569887

> <r_i_glide_esite>
-0.380312

> <r_i_glide_emodel>
-46.3381

> <r_i_glide_energy>
-27.7086

> <r_i_glide_einternal>
1.08329

> <i_i_glide_confnum>
2

> <i_i_glide_posenum>
235

$$$$
C00191
                    3D
 Structure written by MMmdl.
 22 22  0  0  1  0            999 V2000
    1.6645    2.5529    2.8410 C   0  0  2  0  0  0
    1.1161    1.1535    3.2131 C   0  0  2  0  0  0
    2.7428    2.8711    3.7162 O   0  0  0  0  0  0
    0.5937    3.6494    2.9440 C   0  0  0  0  0  0
    2.2569    0.1249    3.1733 C   0  0  1  0  0  0
    0.1060    0.7546    2.3034 O   0  0  0  0  0  0
    3.8462    2.0273    3.5978 C   0  0  2  0  0  0
   -0.2119    3.5896    3.8999 O   0  0  0  0  0  0
    3.4421    0.6024    4.0371 C   0  0  2  0  0  0
    1.7804   -1.0914    3.7190 O   0  0  0  0  0  0
    4.8993    2.4879    4.4118 O   0  0  0  0  0  0
    4.5142   -0.2997    3.8388 O   0  0  0  0  0  0
    2.0358    2.5400    1.8139 H   0  0  0  0  0  0
    0.6875    1.1815    4.2167 H   0  0  0  0  0  0
    2.5821   -0.0382    2.1440 H   0  0  0  0  0  0
    0.4841    0.7509    1.4369 H   0  0  0  0  0  0
    4.2074    2.0458    2.5676 H   0  0  0  0  0  0
    3.1691    0.6289    5.0937 H   0  0  0  0  0  0
    2.5297   -1.5825    4.0224 H   0  0  0  0  0  0
    4.7023    2.2423    5.3030 H   0  0  0  0  0  0
    4.4764   -0.9488    4.5256 H   0  0  0  0  0  0
    0.6183    4.5503    2.0763 O   0  5  0  0  0  0
  1  2  1  0  0  0
  1  3  1  0  0  0
  1  4  1  0  0  0
  1 13  1  0  0  0
  2  5  1  0  0  0
  2  6  1  0  0  0
  2 14  1  0  0  0
  3  7  1  0  0  0
  4  8  2  0  0  0
  4 22  1  0  0  0
  5  9  1  0  0  0
  5 10  1  0  0  0
  5 15  1  0  0  0
  6 16  1  0  0  0
  7 11  1  0  0  0
  7  9  1  0  0  0
  7 17  1  0  0  0
  9 12  1  0  0  0
  9 18  1  0  0  0
 10 19  1  0  0  0
 11 20  1  0  0  0
 12 21  1  0  0  0
M  CHG  1  22  -1
M  END
> <i_ionizer_Ion_state_n>
1

> <i_ionizer_Tot_Q>
-1

> <s_ionizer_Ion_centers>
22

> <s_ionizer_Ion_types>
OM

> <s_ionizer_Ion_ctrs_in>
8

> <r_ionizer_Ionization_penalty>
0.00059219

> <r_ionizer_Ionization_penalty_charging>
0.00059219

> <r_ionizer_Ionization_penalty_neutral>
0

> <s_st_Chirality_1>
1_S_3_4_2_13

> <s_st_Chirality_2>
2_S_6_1_5_14

> <s_st_Chirality_3>
5_S_10_9_2_15

> <s_st_Chirality_4>
9_R_12_7_5_18

> <s_st_Chirality_5>
7_R_3_11_9_17

> <i_mmod_Serial_Number-OPLS-2005>
135

> <i_i_glide_lignum>
133

> <r_i_docking_score>
-6.3881

> <r_i_glide_gscore>
-6.3881

> <r_i_glide_lipo>
-0.379869

> <r_i_glide_hbond>
-1.15

> <r_i_glide_metal>
0

> <r_i_glide_eburp>
-2.32474

> <r_i_glide_evdw>
-16.8892

> <r_i_glide_ecoul>
-10.4556

> <r_i_glide_erotb>
0

> <r_i_glide_esite>
-0.136796

> <r_i_glide_emodel>
-51.2233

> <r_i_glide_energy>
-27.3448

> <r_i_glide_einternal>
2.20984

> <i_i_glide_confnum>
1

> <i_i_glide_posenum>
855

$$$$
C00267
                    3D
 Structure written by MMmdl.
 24 24  0  0  1  0            999 V2000
    4.6465    0.6044    3.3125 C   0  0  2  0  0  0
    3.4115   -0.3082    3.4991 C   0  0  2  0  0  0
    5.2076    0.3676    2.0063 O   0  0  0  0  0  0
    5.7576    0.3259    4.3398 C   0  0  0  0  0  0
    2.3994   -0.1295    2.3506 C   0  0  1  0  0  0
    2.7821   -0.0396    4.7484 O   0  0  0  0  0  0
    4.3492    0.6149    0.9127 C   0  0  1  0  0  0
    5.2944    0.5006    5.6742 O   0  0  0  0  0  0
    3.1163   -0.3014    0.9999 C   0  0  2  0  0  0
    1.3627   -1.1005    2.4677 O   0  0  0  0  0  0
    3.9938    1.9852    0.8939 O   0  0  0  0  0  0
    2.2513   -0.0253   -0.1000 O   0  0  0  0  0  0
    4.3459    1.6501    3.3971 H   0  0  0  0  0  0
    3.7506   -1.3455    3.5060 H   0  0  0  0  0  0
    6.1223   -0.6963    4.2360 H   0  0  0  0  0  0
    6.6089    0.9851    4.1679 H   0  0  0  0  0  0
    1.9552    0.8657    2.4074 H   0  0  0  0  0  0
    3.1838   -0.6154    5.4145 H   0  0  0  0  0  0
    4.9495    0.3668    0.0280 H   0  0  0  0  0  0
    4.9513   -0.3445    5.9953 H   0  0  0  0  0  0
    3.4620   -1.3328    0.9129 H   0  0  0  0  0  0
    0.7867   -0.8361    3.1990 H   0  0  0  0  0  0
    3.3730    2.1338    1.6206 H   0  0  0  0  0  0
    2.6784   -0.3284   -0.9132 H   0  0  0  0  0  0
  1  2  1  0  0  0
  1  3  1  0  0  0
  1  4  1  0  0  0
  1 13  1  0  0  0
  2  5  1  0  0  0
  2  6  1  0  0  0
  2 14  1  0  0  0
  3  7  1  0  0  0
  4  8  1  0  0  0
  4 15  1  0  0  0
  4 16  1  0  0  0
  5  9  1  0  0  0
  5 10  1  0  0  0
  5 17  1  0  0  0
  6 18  1  0  0  0
  7 11  1  0  0  0
  7  9  1  0  0  0
  7 19  1  0  0  0
  8 20  1  0  0  0
  9 12  1  0  0  0
  9 21  1  0  0  0
 10 22  1  0  0  0
 11 23  1  0  0  0
 12 24  1  0  0  0
M  END
> <i_ionizer_Ion_state_n>
0

> <i_ionizer_Tot_Q>
0

> <s_ionizer_Ion_centers>


> <s_ionizer_Ion_types>


> <s_ionizer_Ion_ctrs_in>


> <r_ionizer_Ionization_penalty>
0

> <r_ionizer_Ionization_penalty_charging>
0

> <r_ionizer_Ionization_penalty_neutral>
0

> <s_st_Chirality_1>
1_R_3_2_4_13

> <s_st_Chirality_2>
2_R_6_5_1_14

> <s_st_Chirality_3>
5_S_10_9_2_17

> <s_st_Chirality_4>
7_S_3_11_9_19

> <s_st_Chirality_5>
9_R_12_7_5_21

> <i_mmod_Serial_Number-OPLS-2005>
172

> <i_i_glide_lignum>
170

> <r_i_docking_score>
-6.38539

> <r_i_glide_gscore>
-6.38539

> <r_i_glide_lipo>
-0.505129

> <r_i_glide_hbond>
-1.28461

> <r_i_glide_metal>
0

> <r_i_glide_eburp>
-2.42304

> <r_i_glide_evdw>
-16.8451

> <r_i_glide_ecoul>
-13.9575

> <r_i_glide_erotb>
0.554751

> <r_i_glide_esite>
0.0159937

> <r_i_glide_emodel>
-40.9895

> <r_i_glide_energy>
-30.8026

> <r_i_glide_einternal>
0.854986

> <i_i_glide_confnum>
1

> <i_i_glide_posenum>
540

$$$$
C00337
                    3D
 Structure written by MMmdl.
 16 16  0  0  1  0            999 V2000
    1.5897    2.1636    2.8189 C   0  0  2  0  0  0
    0.9580    0.8262    3.2632 C   0  0  0  0  0  0
    2.8692    2.3430    3.5079 N   0  0  0  0  0  0
    0.6444    3.3170    3.1732 C   0  0  0  0  0  0
    2.0187   -0.2790    3.2694 C   0  0  0  0  0  0
    3.7347    1.3419    3.7669 C   0  0  0  0  0  0
    0.4820    4.2001    2.3036 O   0  0  0  0  0  0
    3.2919    0.0856    3.5254 N   0  0  0  0  0  0
    1.6976   -1.4496    3.0756 O   0  0  0  0  0  0
    4.8664    1.5580    4.1921 O   0  0  0  0  0  0
    1.7731    2.1576    1.7429 H   0  0  0  0  0  0
    0.5460    0.8953    4.2716 H   0  0  0  0  0  0
    0.1372    0.5510    2.5995 H   0  0  0  0  0  0
    3.1420    3.2906    3.7260 H   0  0  0  0  0  0
    3.9662   -0.6592    3.6170 H   0  0  0  0  0  0
    0.0997    3.2999    4.2999 O   0  5  0  0  0  0
  1  2  1  0  0  0
  1  3  1  0  0  0
  1  4  1  0  0  0
  1 11  1  0  0  0
  2  5  1  0  0  0
  2 12  1  0  0  0
  2 13  1  0  0  0
  3  6  1  0  0  0
  3 14  1  0  0  0
  4  7  2  0  0  0
  4 16  1  0  0  0
  5  8  1  0  0  0
  5  9  2  0  0  0
  6 10  2  0  0  0
  6  8  1  0  0  0
  8 15  1  0  0  0
M  CHG  1  16  -1
M  END
> <i_ionizer_Ion_state_n>
1

> <i_ionizer_Tot_Q>
-1

> <s_ionizer_Ion_centers>
16

> <s_ionizer_Ion_types>
OM

> <s_ionizer_Ion_ctrs_in>
7

> <r_ionizer_Ionization_penalty>
0.00059219

> <r_ionizer_Ionization_penalty_charging>
0.00059219

> <r_ionizer_Ionization_penalty_neutral>
0

> <s_st_Chirality_1>
1_S_3_4_2_11

> <i_mmod_Serial_Number-OPLS-2005>
198

> <i_i_glide_lignum>
196

> <r_i_docking_score>
-6.37591

> <r_i_glide_gscore>
-6.37591

> <r_i_glide_lipo>
-0.184637

> <r_i_glide_hbond>
-0.971457

> <r_i_glide_metal>
0

> <r_i_glide_eburp>
-2.5

> <r_i_glide_evdw>
-18.8565

> <r_i_glide_ecoul>
-6.70557

> <r_i_glide_erotb>
0

> <r_i_glide_esite>
-0.540736

> <r_i_glide_emodel>
-49.1559

> <r_i_glide_energy>
-25.5621

> <r_i_glide_einternal>
0.335631

> <i_i_glide_confnum>
1

> <i_i_glide_posenum>
246

$$$$
C11433
                    3D
 Structure written by MMmdl.
 28 30  0  0  1  0            999 V2000
    0.7203    1.9553    3.8846 C   0  0  0  0  0  0
    0.2354    3.1989    3.4540 C   0  0  0  0  0  0
    2.3076    3.5900    2.2006 C   0  0  0  0  0  0
    1.0144    4.0249    2.6146 C   0  0  0  0  0  0
    0.4934    5.2772    2.1974 C   0  0  0  0  0  0
    1.2794    6.1006    1.3559 C   0  0  0  0  0  0
    2.5536    5.6833    0.9419 C   0  0  0  0  0  0
    3.0636    4.4428    1.3583 C   0  0  0  0  0  0
    1.9937    1.5151    3.4834 C   0  0  0  0  0  0
    2.8019    2.3244    2.6384 C   0  0  0  0  0  0
    4.0788    1.8275    2.2662 C   0  0  0  0  0  0
    4.5308    0.5733    2.7191 C   0  0  0  0  0  0
    3.7185   -0.2125    3.5534 C   0  0  0  0  0  0
    2.4509    0.2592    3.9346 C   0  0  0  0  0  0
   -0.7666    5.6372    2.6354 O   0  0  0  0  0  0
   -1.3019    6.8850    2.2183 C   0  0  0  0  0  0
    0.1064    1.3402    4.5266 H   0  0  0  0  0  0
   -0.7469    3.5074    3.7803 H   0  0  0  0  0  0
    0.9287    7.0612    1.0113 H   0  0  0  0  0  0
    3.1450    6.3194    0.2998 H   0  0  0  0  0  0
    4.0472    4.1810    1.0059 H   0  0  0  0  0  0
    4.7482    2.3814    1.6294 H   0  0  0  0  0  0
    5.5057    0.2138    2.4241 H   0  0  0  0  0  0
    4.0664   -1.1744    3.9001 H   0  0  0  0  0  0
    1.8304   -0.3493    4.5764 H   0  0  0  0  0  0
   -2.2947    7.0115    2.6499 H   0  0  0  0  0  0
   -0.6863    7.7180    2.5602 H   0  0  0  0  0  0
   -1.4068    6.9320    1.1335 H   0  0  0  0  0  0
  1  9  1  0  0  0
  1  2  2  0  0  0
  1 17  1  0  0  0
  2  4  1  0  0  0
  2 18  1  0  0  0
  3  8  1  0  0  0
  3 10  1  0  0  0
  3  4  2  0  0  0
  4  5  1  0  0  0
  5 15  1  0  0  0
  5  6  2  0  0  0
  6  7  1  0  0  0
  6 19  1  0  0  0
  7  8  2  0  0  0
  7 20  1  0  0  0
  8 21  1  0  0  0
  9 10  2  0  0  0
  9 14  1  0  0  0
 10 11  1  0  0  0
 11 12  2  0  0  0
 11 22  1  0  0  0
 12 13  1  0  0  0
 12 23  1  0  0  0
 13 14  2  0  0  0
 13 24  1  0  0  0
 14 25  1  0  0  0
 15 16  1  0  0  0
 16 26  1  0  0  0
 16 27  1  0  0  0
 16 28  1  0  0  0
M  END
> <i_ionizer_Ion_state_n>
0

> <i_ionizer_Tot_Q>
0

> <s_ionizer_Ion_centers>


> <s_ionizer_Ion_types>


> <s_ionizer_Ion_ctrs_in>


> <r_ionizer_Ionization_penalty>
0

> <r_ionizer_Ionization_penalty_charging>
0

> <r_ionizer_Ionization_penalty_neutral>
0

> <i_mmod_Serial_Number-OPLS-2005>
939

> <i_i_glide_lignum>
922

> <r_i_docking_score>
-6.36971

> <r_i_glide_gscore>
-6.36971

> <r_i_glide_lipo>
-1.3534

> <r_i_glide_hbond>
0

> <r_i_glide_metal>
0

> <r_i_glide_eburp>
-2.21013

> <r_i_glide_evdw>
-25.7248

> <r_i_glide_ecoul>
-0.534463

> <r_i_glide_erotb>
0

> <r_i_glide_esite>
-0.694749

> <r_i_glide_emodel>
-35.6421

> <r_i_glide_energy>
-26.2593

> <r_i_glide_einternal>
0.000180911

> <i_i_glide_confnum>
1

> <i_i_glide_posenum>
539

$$$$
C05269
                    3D
 Structure written by MMmdl.
 96 98  0  0  1  0            999 V2000
  -13.7828   12.2952    2.9174 N   0  0  0  0  0  0
  -14.5551   12.1297    4.1974 C   0  0  1  0  0  0
  -14.2383   12.9011    1.7627 C   0  0  0  0  0  0
  -12.5333   11.8069    2.5840 C   0  0  0  0  0  0
  -14.4101   10.7087    4.7775 C   0  0  1  0  0  0
  -14.0082   13.0031    5.1481 O   0  0  0  0  0  0
  -13.1872   12.7727    0.8138 C   0  0  0  0  0  0
  -15.4411   13.5086    1.5372 N   0  0  0  0  0  0
  -12.1280   12.0727    1.3710 N   0  0  0  0  0  0
  -14.0745   10.9871    6.2338 C   0  0  1  0  0  0
  -15.5693    9.9127    4.6484 O   0  0  0  0  0  0
  -13.2730   12.2855    6.1361 C   0  0  1  0  0  0
  -13.4275   13.3502   -0.4581 C   0  0  0  0  0  0
  -15.5238   14.0017    0.2988 C   0  0  0  0  0  0
  -15.2374   11.2804    7.0002 O   0  0  0  0  0  0
  -11.8089   12.1270    5.6752 C   0  0  0  0  0  0
  -14.6144   13.9605   -0.6802 N   0  0  0  0  0  0
  -12.5345   13.3160   -1.4559 N   0  0  0  0  0  0
  -15.3143   10.5168    8.6190 P   0  0  0  0  0  0
  -11.2478   13.3880    5.3787 O   0  0  0  0  0  0
  -14.1491   11.2049    9.3632 O   0  0  0  0  0  0
   -9.8366   13.5373    4.4406 P   0  0  0  0  0  0
   -8.6173   12.6983    5.2864 O   0  0  0  0  0  0
  -10.0636   12.8296    3.1592 O   0  0  0  0  0  0
   -7.7438   12.8570    6.7422 P   0  0  0  0  0  0
   -6.5291   11.6653    6.6990 O   0  0  0  0  0  0
   -7.0760   14.1792    6.7353 O   0  0  0  0  0  0
   -5.6055   11.6265    5.6292 C   0  0  0  0  0  0
   -4.5388   10.5168    5.7861 C   0  0  0  0  0  0
   -3.9379   10.2518    4.3657 C   0  0  2  0  0  0
   -3.4775   10.9762    6.8119 C   0  0  0  0  0  0
   -5.2360    9.2424    6.3116 C   0  0  0  0  0  0
   -3.0938    8.9805    4.1684 C   0  0  0  0  0  0
   -3.1932   11.3627    3.9021 O   0  0  0  0  0  0
   -3.0596    8.5008    2.9173 N   0  0  0  0  0  0
   -2.4738    8.4665    5.0998 O   0  0  0  0  0  0
   -2.3263    7.3233    2.4819 C   0  0  0  0  0  0
   -1.0940    7.7537    1.6677 C   0  0  0  0  0  0
   -0.0808    6.6272    1.4512 C   0  0  0  0  0  0
    1.1120    6.9950    0.9628 N   0  0  0  0  0  0
   -0.3691    5.4587    1.7120 O   0  0  0  0  0  0
    2.2071    6.0747    0.6900 C   0  0  0  0  0  0
    2.3640    5.0632    1.8308 C   0  0  0  0  0  0
    3.7396    3.9201    1.5123 S   0  0  0  0  0  0
    3.0890    2.4489    2.3443 C   0  0  0  0  0  0
    2.0967    1.6141    1.5291 C   0  0  0  0  0  0
    3.4187    2.1166    3.4822 O   0  0  0  0  0  0
    1.9167    0.2002    2.1048 C   0  0  0  0  0  0
    0.7860    0.0351    3.1261 C   0  0  0  0  0  0
    2.6323   -0.7501    1.7801 O   0  0  0  0  0  0
    1.1461   -0.8805    4.3107 C   0  0  0  0  0  0
    2.4218   -0.4301    5.0312 C   0  0  0  0  0  0
  -15.5776   12.4161    3.9498 H   0  0  0  0  0  0
  -11.9153   11.2431    3.2680 H   0  0  0  0  0  0
  -13.5585   10.1908    4.3372 H   0  0  0  0  0  0
  -13.4992   10.1856    6.6921 H   0  0  0  0  0  0
  -15.7734    9.8413    3.7192 H   0  0  0  0  0  0
  -13.2906   12.8222    7.0852 H   0  0  0  0  0  0
  -16.4499   14.5021    0.0572 H   0  0  0  0  0  0
  -11.1952   11.6511    6.4377 H   0  0  0  0  0  0
  -11.7672   11.4850    4.7951 H   0  0  0  0  0  0
  -12.7537   13.7450   -2.3426 H   0  0  0  0  0  0
  -11.6379   12.8760   -1.3059 H   0  0  0  0  0  0
   -6.1604   11.4836    4.7050 H   0  0  0  0  0  0
   -5.1357   12.6082    5.5574 H   0  0  0  0  0  0
   -4.7836   10.1587    3.6855 H   0  0  0  0  0  0
   -2.7305   10.2085    7.0071 H   0  0  0  0  0  0
   -2.9536   11.8707    6.4747 H   0  0  0  0  0  0
   -3.9393   11.2165    7.7700 H   0  0  0  0  0  0
   -4.5252    8.4400    6.5090 H   0  0  0  0  0  0
   -5.7679    9.4318    7.2444 H   0  0  0  0  0  0
   -5.9636    8.8669    5.5915 H   0  0  0  0  0  0
   -3.0945   11.2689    2.9584 H   0  0  0  0  0  0
   -3.5610    9.0176    2.1986 H   0  0  0  0  0  0
   -2.0205    6.7418    3.3536 H   0  0  0  0  0  0
   -2.9852    6.6935    1.8823 H   0  0  0  0  0  0
   -1.4050    8.1331    0.6935 H   0  0  0  0  0  0
   -0.5949    8.5801    2.1774 H   0  0  0  0  0  0
    1.2658    7.9742    0.7674 H   0  0  0  0  0  0
    2.0158    5.5528   -0.2490 H   0  0  0  0  0  0
    3.1312    6.6410    0.5629 H   0  0  0  0  0  0
    2.5469    5.5859    2.7707 H   0  0  0  0  0  0
    1.4443    4.4888    1.9498 H   0  0  0  0  0  0
    1.1305    2.1184    1.5027 H   0  0  0  0  0  0
    2.4490    1.5403    0.4998 H   0  0  0  0  0  0
    0.5116    1.0241    3.4946 H   0  0  0  0  0  0
   -0.0878   -0.3602    2.6071 H   0  0  0  0  0  0
    0.3230   -0.9022    5.0265 H   0  0  0  0  0  0
    1.2790   -1.9052    3.9605 H   0  0  0  0  0  0
    2.6525   -1.0948    5.8640 H   0  0  0  0  0  0
    3.2779   -0.4337    4.3559 H   0  0  0  0  0  0
    2.3134    0.5785    5.4309 H   0  0  0  0  0  0
  -16.7337   10.9037    9.0858 O   0  5  0  0  0  0
  -15.0993    9.0238    8.2833 O   0  5  0  0  0  0
   -9.4711   14.9710    4.4120 O   0  5  0  0  0  0
   -8.6604   12.5229    7.8562 O   0  5  0  0  0  0
  1  2  1  0  0  0
  1  3  1  0  0  0
  1  4  1  0  0  0
  2  5  1  0  0  0
  2  6  1  0  0  0
  2 53  1  0  0  0
  3  7  2  0  0  0
  3  8  1  0  0  0
  4  9  2  0  0  0
  4 54  1  0  0  0
  5 10  1  0  0  0
  5 11  1  0  0  0
  5 55  1  0  0  0
  6 12  1  0  0  0
  7 13  1  0  0  0
  7  9  1  0  0  0
  8 14  2  0  0  0
 10 15  1  0  0  0
 10 12  1  0  0  0
 10 56  1  0  0  0
 11 57  1  0  0  0
 12 16  1  0  0  0
 12 58  1  0  0  0
 13 17  2  0  0  0
 13 18  1  0  0  0
 14 17  1  0  0  0
 14 59  1  0  0  0
 15 19  1  0  0  0
 16 20  1  0  0  0
 16 60  1  0  0  0
 16 61  1  0  0  0
 18 62  1  0  0  0
 18 63  1  0  0  0
 19 21  2  0  0  0
 19 93  1  0  0  0
 19 94  1  0  0  0
 20 22  1  0  0  0
 22 23  1  0  0  0
 22 24  2  0  0  0
 22 95  1  0  0  0
 23 25  1  0  0  0
 25 26  1  0  0  0
 25 27  2  0  0  0
 25 96  1  0  0  0
 26 28  1  0  0  0
 28 29  1  0  0  0
 28 64  1  0  0  0
 28 65  1  0  0  0
 29 30  1  0  0  0
 29 31  1  0  0  0
 29 32  1  0  0  0
 30 33  1  0  0  0
 30 34  1  0  0  0
 30 66  1  0  0  0
 31 67  1  0  0  0
 31 68  1  0  0  0
 31 69  1  0  0  0
 32 70  1  0  0  0
 32 71  1  0  0  0
 32 72  1  0  0  0
 33 35  1  0  0  0
 33 36  2  0  0  0
 34 73  1  0  0  0
 35 37  1  0  0  0
 35 74  1  0  0  0
 37 38  1  0  0  0
 37 75  1  0  0  0
 37 76  1  0  0  0
 38 39  1  0  0  0
 38 77  1  0  0  0
 38 78  1  0  0  0
 39 40  1  0  0  0
 39 41  2  0  0  0
 40 42  1  0  0  0
 40 79  1  0  0  0
 42 43  1  0  0  0
 42 80  1  0  0  0
 42 81  1  0  0  0
 43 44  1  0  0  0
 43 82  1  0  0  0
 43 83  1  0  0  0
 44 45  1  0  0  0
 45 46  1  0  0  0
 45 47  2  0  0  0
 46 48  1  0  0  0
 46 84  1  0  0  0
 46 85  1  0  0  0
 48 49  1  0  0  0
 48 50  2  0  0  0
 49 51  1  0  0  0
 49 86  1  0  0  0
 49 87  1  0  0  0
 51 52  1  0  0  0
 51 88  1  0  0  0
 51 89  1  0  0  0
 52 90  1  0  0  0
 52 91  1  0  0  0
 52 92  1  0  0  0
M  CHG  4  93  -1  94  -1  95  -1  96  -1
M  END
> <i_ionizer_Ion_state_n>
30

> <i_ionizer_Tot_Q>
-4

> <s_ionizer_Ion_centers>
93_94_95_96

> <s_ionizer_Ion_types>
OM_OM_OM_OM

> <s_ionizer_Ion_ctrs_in>
21_22_26_30

> <r_ionizer_Ionization_penalty>
4.85714e-05

> <r_ionizer_Ionization_penalty_charging>
2.98356e-05

> <r_ionizer_Ionization_penalty_neutral>
1.87357e-05

> <s_st_Chirality_1>
2_R_6_1_5_53

> <s_st_Chirality_2>
5_R_11_2_10_55

> <s_st_Chirality_3>
10_R_15_5_12_56

> <s_st_Chirality_4>
12_R_6_10_16_58

> <s_st_Chirality_5>
30_R_34_33_29_66

> <i_mmod_Serial_Number-OPLS-2005>
654

> <i_i_glide_lignum>
647

> <r_i_docking_score>
-6.36923

> <r_i_glide_gscore>
-6.36923

> <r_i_glide_lipo>
-1.07992

> <r_i_glide_hbond>
-1.52101

> <r_i_glide_metal>
0

> <r_i_glide_eburp>
-7.09068e-17

> <r_i_glide_evdw>
-49.2195

> <r_i_glide_ecoul>
-4.88685

> <r_i_glide_erotb>
0.540366

> <r_i_glide_esite>
0.117582

> <r_i_glide_emodel>
-107.269

> <r_i_glide_energy>
-54.1064

> <r_i_glide_einternal>
8.58958

> <i_i_glide_confnum>
1281

> <i_i_glide_posenum>
588

$$$$
C00590
                    3D
 Structure written by MMmdl.
 25 25  0  0  1  0            999 V2000
    1.6461    1.4736    2.9651 C   0  0  0  0  0  0
    2.3964    2.0283    1.9071 C   0  0  0  0  0  0
    0.7444    2.2464    3.6373 O   0  0  0  0  0  0
    1.8187    0.1275    3.3353 C   0  0  0  0  0  0
    3.3267    1.2032    1.2251 C   0  0  0  0  0  0
    2.1720    3.3554    1.6019 O   0  0  0  0  0  0
    2.7445   -0.6809    2.6512 C   0  0  0  0  0  0
    3.5088   -0.1497    1.5877 C   0  0  0  0  0  0
    4.4909   -0.9552    0.8387 C   0  0  0  0  0  0
    5.3869   -0.5006   -0.0562 C   0  0  0  0  0  0
    2.8892    3.9256    0.5170 C   0  0  0  0  0  0
    6.3746   -1.3812   -0.7907 C   0  0  0  0  0  0
    5.6991   -2.2253   -1.6967 O   0  0  0  0  0  0
    0.7129    3.1281    3.2975 H   0  0  0  0  0  0
    1.2397   -0.2883    4.1469 H   0  0  0  0  0  0
    3.9172    1.5946    0.4108 H   0  0  0  0  0  0
    2.8535   -1.7089    2.9601 H   0  0  0  0  0  0
    4.4766   -2.0169    1.0396 H   0  0  0  0  0  0
    5.4476    0.5506   -0.2919 H   0  0  0  0  0  0
    2.6023    4.9713    0.4065 H   0  0  0  0  0  0
    3.9657    3.8964    0.6910 H   0  0  0  0  0  0
    2.6600    3.4204   -0.4223 H   0  0  0  0  0  0
    7.0735   -0.7521   -1.3424 H   0  0  0  0  0  0
    6.9536   -1.9840   -0.0901 H   0  0  0  0  0  0
    5.0602   -1.7127   -2.1682 H   0  0  0  0  0  0
  1  4  2  0  0  0
  1  2  1  0  0  0
  1  3  1  0  0  0
  2  5  2  0  0  0
  2  6  1  0  0  0
  3 14  1  0  0  0
  4  7  1  0  0  0
  4 15  1  0  0  0
  5  8  1  0  0  0
  5 16  1  0  0  0
  6 11  1  0  0  0
  7  8  2  0  0  0
  7 17  1  0  0  0
  8  9  1  0  0  0
  9 10  2  0  0  0
  9 18  1  0  0  0
 10 12  1  0  0  0
 10 19  1  0  0  0
 11 20  1  0  0  0
 11 21  1  0  0  0
 11 22  1  0  0  0
 12 13  1  0  0  0
 12 23  1  0  0  0
 12 24  1  0  0  0
 13 25  1  0  0  0
M  END
> <i_ionizer_Ion_state_n>
0

> <i_ionizer_Tot_Q>
0

> <s_ionizer_Ion_centers>


> <s_ionizer_Ion_types>


> <s_ionizer_Ion_ctrs_in>


> <r_ionizer_Ionization_penalty>
0.00059219

> <r_ionizer_Ionization_penalty_charging>
0

> <r_ionizer_Ionization_penalty_neutral>
0.00059219

> <s_st_EZ_1>
8_9_10_12_E

> <i_mmod_Serial_Number-OPLS-2005>
290

> <i_i_glide_lignum>
288

> <r_i_docking_score>
-6.36906

> <r_i_glide_gscore>
-6.36906

> <r_i_glide_lipo>
-0.942101

> <r_i_glide_hbond>
-0.857548

> <r_i_glide_metal>
0

> <r_i_glide_eburp>
-2.42269

> <r_i_glide_evdw>
-22.9634

> <r_i_glide_ecoul>
-5.87842

> <r_i_glide_erotb>
1.10903

> <r_i_glide_esite>
-0.830836

> <r_i_glide_emodel>
-36.7916

> <r_i_glide_energy>
-28.8418

> <r_i_glide_einternal>
3.00825

> <i_i_glide_confnum>
2

> <i_i_glide_posenum>
918

$$$$
C00544
                    3D
 Structure written by MMmdl.
 19 19  0  0  1  0            999 V2000
    2.4300    2.8927    3.1033 C   0  0  0  0  0  0
    3.6681    3.4229    3.5397 C   0  0  0  0  0  0
    2.1267    1.5381    3.3629 C   0  0  0  0  0  0
    1.4145    3.7584    2.3654 C   0  0  0  0  0  0
    4.5873    2.5986    4.2199 C   0  0  0  0  0  0
    3.9913    4.7303    3.3123 O   0  0  0  0  0  0
    3.0469    0.7176    4.0435 C   0  0  0  0  0  0
    0.0854    3.7387    3.1273 C   0  0  0  0  0  0
    4.2786    1.2484    4.4717 C   0  0  0  0  0  0
    2.7433   -0.5903    4.2867 O   0  0  0  0  0  0
   -0.9362    4.1314    2.5206 O   0  0  0  0  0  0
    1.1852    1.1246    3.0314 H   0  0  0  0  0  0
    1.7731    4.7859    2.2972 H   0  0  0  0  0  0
    1.2767    3.4032    1.3435 H   0  0  0  0  0  0
    5.5335    2.9994    4.5526 H   0  0  0  0  0  0
    3.3556    5.1860    2.7831 H   0  0  0  0  0  0
    4.9896    0.6252    4.9939 H   0  0  0  0  0  0
    3.4043   -1.0374    4.7921 H   0  0  0  0  0  0
    0.1085    3.3053    4.3002 O   0  5  0  0  0  0
  1  2  2  0  0  0
  1  3  1  0  0  0
  1  4  1  0  0  0
  2  5  1  0  0  0
  2  6  1  0  0  0
  3  7  2  0  0  0
  3 12  1  0  0  0
  4  8  1  0  0  0
  4 13  1  0  0  0
  4 14  1  0  0  0
  5  9  2  0  0  0
  5 15  1  0  0  0
  6 16  1  0  0  0
  7 10  1  0  0  0
  7  9  1  0  0  0
  8 11  2  0  0  0
  8 19  1  0  0  0
  9 17  1  0  0  0
 10 18  1  0  0  0
M  CHG  1  19  -1
M  END
> <i_ionizer_Ion_state_n>
4

> <i_ionizer_Tot_Q>
-1

> <s_ionizer_Ion_centers>
19

> <s_ionizer_Ion_types>
OM

> <s_ionizer_Ion_ctrs_in>
11

> <r_ionizer_Ionization_penalty>
0.00177657

> <r_ionizer_Ionization_penalty_charging>
0.00059219

> <r_ionizer_Ionization_penalty_neutral>
0.00118438

> <i_mmod_Serial_Number-OPLS-2005>
275

> <i_i_glide_lignum>
273

> <r_i_docking_score>
-6.36808

> <r_i_glide_gscore>
-6.36808

> <r_i_glide_lipo>
-0.609769

> <r_i_glide_hbond>
-1.39518

> <r_i_glide_metal>
0

> <r_i_glide_eburp>
-2.5

> <r_i_glide_evdw>
-17.4881

> <r_i_glide_ecoul>
-8.78958

> <r_i_glide_erotb>
0.627087

> <r_i_glide_esite>
-0.212215

> <r_i_glide_emodel>
-53.0986

> <r_i_glide_energy>
-26.2777

> <r_i_glide_einternal>
1.71914

> <i_i_glide_confnum>
2

> <i_i_glide_posenum>
260

$$$$
C08061
                    3D
 Structure written by MMmdl.
 26 27  0  0  1  0            999 V2000
    2.1624    3.8563    2.5384 C   0  0  0  0  0  0
    2.8699    2.6994    3.1230 C   0  0  0  0  0  0
    0.8332    4.1787    2.9076 C   0  0  0  0  0  0
    2.8192    4.6745    1.5924 C   0  0  0  0  0  0
    2.3606    1.3771    3.0395 C   0  0  0  0  0  0
    4.0998    2.9092    3.7862 C   0  0  0  0  0  0
    0.1816    5.2940    2.3384 C   0  0  0  0  0  0
    0.1568    3.4124    3.8145 O   0  0  0  0  0  0
    2.1709    5.7868    1.0234 C   0  0  0  0  0  0
    3.0764    0.3020    3.6061 C   0  0  0  0  0  0
    1.1900    1.1204    2.4320 N   0  0  0  0  0  0
    4.8122    1.8354    4.3522 C   0  0  0  0  0  0
    0.8510    6.0978    1.3964 C   0  0  0  0  0  0
   -1.1011    5.5968    2.6988 O   0  0  0  0  0  0
    4.3004    0.5291    4.2612 C   0  0  0  0  0  0
    3.8338    4.4458    1.2999 H   0  0  0  0  0  0
    4.5028    3.9087    3.8618 H   0  0  0  0  0  0
    0.6264    2.6145    4.0075 H   0  0  0  0  0  0
    2.6876    6.4017    0.3012 H   0  0  0  0  0  0
    2.6887   -0.7046    3.5430 H   0  0  0  0  0  0
    0.7590    0.2107    2.5109 H   0  0  0  0  0  0
    0.5848    1.8803    2.1555 H   0  0  0  0  0  0
    5.7509    2.0149    4.8554 H   0  0  0  0  0  0
    0.3573    6.9525    0.9575 H   0  0  0  0  0  0
   -1.4195    6.3940    2.3037 H   0  0  0  0  0  0
    4.8444   -0.2973    4.6943 H   0  0  0  0  0  0
  1  2  1  0  0  0
  1  3  2  0  0  0
  1  4  1  0  0  0
  2  5  1  0  0  0
  2  6  2  0  0  0
  3  7  1  0  0  0
  3  8  1  0  0  0
  4  9  2  0  0  0
  4 16  1  0  0  0
  5 10  2  0  0  0
  5 11  1  0  0  0
  6 12  1  0  0  0
  6 17  1  0  0  0
  7 13  2  0  0  0
  7 14  1  0  0  0
  8 18  1  0  0  0
  9 13  1  0  0  0
  9 19  1  0  0  0
 10 15  1  0  0  0
 10 20  1  0  0  0
 11 21  1  0  0  0
 11 22  1  0  0  0
 12 15  2  0  0  0
 12 23  1  0  0  0
 13 24  1  0  0  0
 14 25  1  0  0  0
 15 26  1  0  0  0
M  END
> <i_ionizer_Ion_state_n>
0

> <i_ionizer_Tot_Q>
0

> <s_ionizer_Ion_centers>


> <s_ionizer_Ion_types>


> <s_ionizer_Ion_ctrs_in>


> <r_ionizer_Ionization_penalty>
0.00305503

> <r_ionizer_Ionization_penalty_charging>
0

> <r_ionizer_Ionization_penalty_neutral>
0.00305503

> <i_mmod_Serial_Number-OPLS-2005>
911

> <i_i_glide_lignum>
899

> <r_i_docking_score>
-6.36801

> <r_i_glide_gscore>
-6.36801

> <r_i_glide_lipo>
-1.12293

> <r_i_glide_hbond>
-0.552102

> <r_i_glide_metal>
0

> <r_i_glide_eburp>
-2.26343

> <r_i_glide_evdw>
-25.7296

> <r_i_glide_ecoul>
-4.74913

> <r_i_glide_erotb>
0.461932

> <r_i_glide_esite>
-0.358196

> <r_i_glide_emodel>
-45.8049

> <r_i_glide_energy>
-30.4787

> <r_i_glide_einternal>
0.771784

> <i_i_glide_confnum>
1

> <i_i_glide_posenum>
806

$$$$
C05656
                    3D
 Structure written by MMmdl.
 25 25  0  0  1  0            999 V2000
    4.2445    2.1657    2.2250 C   0  0  2  0  0  0
    3.4766    1.4334    1.1521 C   0  0  0  0  0  0
    4.0728    1.4907    3.6062 C   0  0  0  0  0  0
    3.8379    3.6549    2.2600 C   0  0  0  0  0  0
    2.4957    0.5729    1.4410 C   0  0  0  0  0  0
    3.9190    1.7019   -0.0837 O   0  0  0  0  0  0
    2.9181    0.7338    3.8293 N   0  0  0  0  0  0
    4.9331    1.6811    4.4639 O   0  0  0  0  0  0
    2.6536    3.9695    3.1943 C   0  0  0  0  0  0
    2.1581    0.3245    2.8688 C   0  0  0  0  0  0
    1.3816    4.3884    2.4451 C   0  0  0  0  0  0
    0.9012   -0.4505    3.2059 C   0  0  0  0  0  0
    0.0344    4.0314    3.1107 C   0  0  0  0  0  0
    1.4391    4.9783    1.3640 O   0  0  0  0  0  0
    0.7523   -0.7843    4.4032 O   0  0  0  0  0  0
   -0.9930    4.4955    2.5669 O   0  0  0  0  0  0
    5.3012    2.0999    1.9624 H   0  0  0  0  0  0
    4.6971    4.2450    2.5810 H   0  0  0  0  0  0
    3.6048    3.9913    1.2488 H   0  0  0  0  0  0
    1.9476    0.0338    0.6821 H   0  0  0  0  0  0
    3.4380    1.1526   -0.6835 H   0  0  0  0  0  0
    2.4135    3.1010    3.8071 H   0  0  0  0  0  0
    2.9298    4.7734    3.8770 H   0  0  0  0  0  0
    0.1123   -0.6972    2.2647 O   0  5  0  0  0  0
    0.0994    3.3094    4.1309 O   0  5  0  0  0  0
  1  2  1  0  0  0
  1  3  1  0  0  0
  1  4  1  0  0  0
  1 17  1  0  0  0
  2  5  2  0  0  0
  2  6  1  0  0  0
  3  7  1  0  0  0
  3  8  2  0  0  0
  4  9  1  0  0  0
  4 18  1  0  0  0
  4 19  1  0  0  0
  5 10  1  0  0  0
  5 20  1  0  0  0
  6 21  1  0  0  0
  7 10  2  0  0  0
  9 11  1  0  0  0
  9 22  1  0  0  0
  9 23  1  0  0  0
 10 12  1  0  0  0
 11 13  1  0  0  0
 11 14  2  0  0  0
 12 15  2  0  0  0
 12 24  1  0  0  0
 13 16  2  0  0  0
 13 25  1  0  0  0
M  CHG  2  24  -1  25  -1
M  END
> <i_ionizer_Ion_state_n>
3

> <i_ionizer_Tot_Q>
-2

> <s_ionizer_Ion_centers>
24_25

> <s_ionizer_Ion_types>
OM_OM

> <s_ionizer_Ion_ctrs_in>
15_17

> <r_ionizer_Ionization_penalty>
0.00118438

> <r_ionizer_Ionization_penalty_charging>
0.00118438

> <r_ionizer_Ionization_penalty_neutral>
0

> <s_st_Chirality_1>
1_R_3_2_4_17

> <s_st_EZ_1>
6_2_5_10_E

> <s_st_EZ_2>
3_7_10_12_E

> <i_mmod_Serial_Number-OPLS-2005>
776

> <i_i_glide_lignum>
767

> <r_i_docking_score>
-6.36073

> <r_i_glide_gscore>
-6.36073

> <r_i_glide_lipo>
-0.373291

> <r_i_glide_hbond>
-1.49908

> <r_i_glide_metal>
0

> <r_i_glide_eburp>
-1.86993

> <r_i_glide_evdw>
-24.1511

> <r_i_glide_ecoul>
-7.01485

> <r_i_glide_erotb>
0.939472

> <r_i_glide_esite>
-0.92434

> <r_i_glide_emodel>
-68.6852

> <r_i_glide_energy>
-31.1659

> <r_i_glide_einternal>
6.584

> <i_i_glide_confnum>
1

> <i_i_glide_posenum>
315

$$$$
C00446
                    3D
 Structure written by MMmdl.
 27 27  0  0  1  0            999 V2000
    2.1876    2.1175    2.6684 C   0  0  1  0  0  0
    3.5508    1.7780    2.9169 O   0  0  0  0  0  0
    1.4190    0.7736    2.6827 C   0  0  1  0  0  0
    1.7207    3.0523    3.6395 O   0  0  0  0  0  0
    3.7988    1.2782    4.2365 C   0  0  1  0  0  0
    1.4953    0.1578    4.0885 C   0  0  2  0  0  0
    0.0998    0.9079    2.1966 O   0  0  0  0  0  0
    0.6645    4.3990    3.1009 P   0  0  0  0  0  0
    2.9776   -0.0151    4.4895 C   0  0  1  0  0  0
    5.3196    1.1295    4.4281 C   0  0  0  0  0  0
    0.8394   -1.0980    4.1571 O   0  0  0  0  0  0
    1.2466    4.7594    1.7167 O   0  0  0  0  0  0
    3.5539   -1.1001    3.7811 O   0  0  0  0  0  0
    5.6134    0.5361    5.6769 O   0  0  0  0  0  0
    2.1509    2.5587    1.6727 H   0  0  0  0  0  0
    1.9086    0.0998    1.9782 H   0  0  0  0  0  0
    3.4662    2.0362    4.9475 H   0  0  0  0  0  0
    1.0036    0.8270    4.7961 H   0  0  0  0  0  0
    0.1511    1.2531    1.3085 H   0  0  0  0  0  0
    3.0300   -0.2707    5.5485 H   0  0  0  0  0  0
    5.7721    0.5478    3.6248 H   0  0  0  0  0  0
    5.7892    2.1133    4.4060 H   0  0  0  0  0  0
    0.9910   -1.4667    5.0136 H   0  0  0  0  0  0
    4.1022   -1.5779    4.3858 H   0  0  0  0  0  0
    5.3242   -0.3632    5.6568 H   0  0  0  0  0  0
   -0.7242    3.7214    3.0975 O   0  5  0  0  0  0
    0.8999    5.4362    4.2201 O   0  5  0  0  0  0
  1  2  1  0  0  0
  1  3  1  0  0  0
  1  4  1  0  0  0
  1 15  1  0  0  0
  2  5  1  0  0  0
  3  6  1  0  0  0
  3  7  1  0  0  0
  3 16  1  0  0  0
  4  8  1  0  0  0
  5  9  1  0  0  0
  5 10  1  0  0  0
  5 17  1  0  0  0
  6 11  1  0  0  0
  6  9  1  0  0  0
  6 18  1  0  0  0
  7 19  1  0  0  0
  8 12  2  0  0  0
  8 26  1  0  0  0
  8 27  1  0  0  0
  9 13  1  0  0  0
  9 20  1  0  0  0
 10 14  1  0  0  0
 10 21  1  0  0  0
 10 22  1  0  0  0
 11 23  1  0  0  0
 13 24  1  0  0  0
 14 25  1  0  0  0
M  CHG  2  26  -1  27  -1
M  END
> <i_ionizer_Ion_state_n>
3

> <i_ionizer_Tot_Q>
-2

> <s_ionizer_Ion_centers>
26_27

> <s_ionizer_Ion_types>
OM_OM

> <s_ionizer_Ion_ctrs_in>
12_13

> <r_ionizer_Ionization_penalty>
1.49178e-05

> <r_ionizer_Ionization_penalty_charging>
1.49178e-05

> <r_ionizer_Ionization_penalty_neutral>
0

> <s_st_Chirality_1>
1_R_4_2_3_15

> <s_st_Chirality_2>
3_R_7_1_6_16

> <s_st_Chirality_3>
5_R_2_9_10_17

> <s_st_Chirality_4>
6_S_11_3_9_18

> <s_st_Chirality_5>
9_S_13_6_5_20

> <i_mmod_Serial_Number-OPLS-2005>
240

> <i_i_glide_lignum>
238

> <r_i_docking_score>
-6.35428

> <r_i_glide_gscore>
-6.35428

> <r_i_glide_lipo>
-0.504862

> <r_i_glide_hbond>
-1.58593

> <r_i_glide_metal>
0

> <r_i_glide_eburp>
-1.8324

> <r_i_glide_evdw>
-16.4256

> <r_i_glide_ecoul>
-12.8023

> <r_i_glide_erotb>
0.6058

> <r_i_glide_esite>
-0.442598

> <r_i_glide_emodel>
-61.8576

> <r_i_glide_energy>
-29.228

> <r_i_glide_einternal>
7.01941

> <i_i_glide_confnum>
3

> <i_i_glide_posenum>
967

$$$$
C00877
                    3D
 Structure written by MMmdl.
 89 91  0  0  1  0            999 V2000
  -11.0538    7.4704   13.9854 N   0  0  0  0  0  0
  -12.0553    7.4891   12.8740 C   0  0  1  0  0  0
  -11.1131    6.6621   15.0984 C   0  0  0  0  0  0
   -9.9007    8.2115   14.1451 C   0  0  0  0  0  0
  -12.5537    8.9227   12.6408 C   0  0  1  0  0  0
  -11.4122    7.0795   11.6975 O   0  0  0  0  0  0
   -9.9834    7.0058   15.8889 C   0  0  0  0  0  0
  -12.0588    5.7303   15.4161 N   0  0  0  0  0  0
   -9.2342    7.9805   15.2452 N   0  0  0  0  0  0
  -12.5804    8.9960   11.1266 C   0  0  1  0  0  0
  -13.8556    9.1796   13.1223 O   0  0  0  0  0  0
  -11.3593    8.1472   10.7477 C   0  0  1  0  0  0
   -9.8603    6.3141   17.1195 C   0  0  0  0  0  0
  -11.8106    5.1627   16.5995 C   0  0  0  0  0  0
  -13.7831    8.3627   10.6894 O   0  0  0  0  0  0
  -10.0080    8.8717   10.8885 C   0  0  0  0  0  0
  -10.7992    5.3945   17.4433 N   0  0  0  0  0  0
   -8.8579    6.5300   17.9811 N   0  0  0  0  0  0
  -13.9808    8.0551    8.9322 P   0  0  0  0  0  0
   -9.8457    9.8684    9.9003 O   0  0  0  0  0  0
  -13.6193    9.4139    8.2935 O   0  0  0  0  0  0
   -8.4904   10.9004    9.9012 P   0  0  0  0  0  0
   -8.2414   11.3367    8.2721 O   0  0  0  0  0  0
   -8.8383   12.1215   10.6639 O   0  0  0  0  0  0
   -7.1259   12.2685    7.3835 P   0  0  0  0  0  0
   -5.8708   11.1684    7.0324 O   0  0  0  0  0  0
   -7.7462   12.6740    6.1023 O   0  0  0  0  0  0
   -5.0445   11.3086    5.8896 C   0  0  0  0  0  0
   -4.0212   10.1488    5.7580 C   0  0  0  0  0  0
   -3.5379   10.0785    4.2693 C   0  0  2  0  0  0
   -2.8537   10.3968    6.7392 C   0  0  0  0  0  0
   -4.7106    8.8218    6.1517 C   0  0  0  0  0  0
   -2.7349    8.8180    3.8954 C   0  0  0  0  0  0
   -2.7682   11.2198    3.9342 O   0  0  0  0  0  0
   -2.7002    8.5001    2.5928 N   0  0  0  0  0  0
   -2.1412    8.1674    4.7563 O   0  0  0  0  0  0
   -2.0653    7.3052    2.0538 C   0  0  0  0  0  0
   -0.6485    7.6282    1.5480 C   0  0  0  0  0  0
    0.2295    6.3848    1.3740 C   0  0  0  0  0  0
    1.4470    6.5892    0.8513 N   0  0  0  0  0  0
   -0.1825    5.2709    1.6985 O   0  0  0  0  0  0
    2.4268    5.5369    0.6185 C   0  0  0  0  0  0
    2.6068    4.6759    1.8737 C   0  0  0  0  0  0
    3.7290    3.2807    1.5612 S   0  0  0  0  0  0
    3.5270    2.3772    3.1172 C   0  0  0  0  0  0
    2.4853    1.3385    3.1377 C   0  0  0  0  0  0
    4.2353    2.6369    4.0907 O   0  0  0  0  0  0
    2.2827    0.5519    4.2101 C   0  0  0  0  0  0
    1.2268   -0.5293    4.2828 C   0  0  0  0  0  0
  -12.8297    6.7778   13.1636 H   0  0  0  0  0  0
   -9.5686    8.9428   13.4227 H   0  0  0  0  0  0
  -11.8422    9.6386   13.0517 H   0  0  0  0  0  0
  -12.5295   10.0229   10.7628 H   0  0  0  0  0  0
  -13.8140    9.0629   14.0623 H   0  0  0  0  0  0
  -11.4291    7.7516    9.7359 H   0  0  0  0  0  0
  -12.5260    4.4194   16.9189 H   0  0  0  0  0  0
   -9.9198    9.3419   11.8624 H   0  0  0  0  0  0
   -9.1980    8.1456   10.8173 H   0  0  0  0  0  0
   -8.8189    6.0147   18.8478 H   0  0  0  0  0  0
   -8.1590    7.2266   17.7656 H   0  0  0  0  0  0
   -5.6657   11.3730    4.9951 H   0  0  0  0  0  0
   -4.5350   12.2689    5.9741 H   0  0  0  0  0  0
   -4.4185   10.1123    3.6254 H   0  0  0  0  0  0
   -2.1312    9.5815    6.7391 H   0  0  0  0  0  0
   -2.3166   11.3169    6.5085 H   0  0  0  0  0  0
   -3.2237   10.4856    7.7593 H   0  0  0  0  0  0
   -4.0251    7.9751    6.1179 H   0  0  0  0  0  0
   -5.0991    8.8618    7.1696 H   0  0  0  0  0  0
   -5.5470    8.5971    5.4893 H   0  0  0  0  0  0
   -2.6708   11.2520    2.9952 H   0  0  0  0  0  0
   -3.1537    9.1200    1.9375 H   0  0  0  0  0  0
   -2.0257    6.5395    2.8308 H   0  0  0  0  0  0
   -2.6785    6.9110    1.2413 H   0  0  0  0  0  0
   -0.7042    8.1458    0.5896 H   0  0  0  0  0  0
   -0.1593    8.3093    2.2463 H   0  0  0  0  0  0
    1.7093    7.5311    0.5994 H   0  0  0  0  0  0
    2.0995    4.9159   -0.2170 H   0  0  0  0  0  0
    3.3795    5.9864    0.3335 H   0  0  0  0  0  0
    3.0102    5.2818    2.6863 H   0  0  0  0  0  0
    1.6409    4.2890    2.2014 H   0  0  0  0  0  0
    1.8753    1.2204    2.2539 H   0  0  0  0  0  0
    2.8914    0.6675    5.0960 H   0  0  0  0  0  0
    0.5369   -0.3253    5.1017 H   0  0  0  0  0  0
    0.6536   -0.5879    3.3570 H   0  0  0  0  0  0
    1.6938   -1.4983    4.4596 H   0  0  0  0  0  0
  -12.9768    6.9041    8.7011 O   0  5  0  0  0  0
  -15.4728    7.6612    8.8645 O   0  5  0  0  0  0
   -7.3193   10.1002   10.3263 O   0  5  0  0  0  0
   -6.5873   13.3090    8.2901 O   0  5  0  0  0  0
  1  2  1  0  0  0
  1  3  1  0  0  0
  1  4  1  0  0  0
  2  5  1  0  0  0
  2  6  1  0  0  0
  2 50  1  0  0  0
  3  7  2  0  0  0
  3  8  1  0  0  0
  4  9  2  0  0  0
  4 51  1  0  0  0
  5 10  1  0  0  0
  5 11  1  0  0  0
  5 52  1  0  0  0
  6 12  1  0  0  0
  7 13  1  0  0  0
  7  9  1  0  0  0
  8 14  2  0  0  0
 10 15  1  0  0  0
 10 12  1  0  0  0
 10 53  1  0  0  0
 11 54  1  0  0  0
 12 16  1  0  0  0
 12 55  1  0  0  0
 13 17  2  0  0  0
 13 18  1  0  0  0
 14 17  1  0  0  0
 14 56  1  0  0  0
 15 19  1  0  0  0
 16 20  1  0  0  0
 16 57  1  0  0  0
 16 58  1  0  0  0
 18 59  1  0  0  0
 18 60  1  0  0  0
 19 21  2  0  0  0
 19 86  1  0  0  0
 19 87  1  0  0  0
 20 22  1  0  0  0
 22 23  1  0  0  0
 22 24  2  0  0  0
 22 88  1  0  0  0
 23 25  1  0  0  0
 25 26  1  0  0  0
 25 27  2  0  0  0
 25 89  1  0  0  0
 26 28  1  0  0  0
 28 29  1  0  0  0
 28 61  1  0  0  0
 28 62  1  0  0  0
 29 30  1  0  0  0
 29 31  1  0  0  0
 29 32  1  0  0  0
 30 33  1  0  0  0
 30 34  1  0  0  0
 30 63  1  0  0  0
 31 64  1  0  0  0
 31 65  1  0  0  0
 31 66  1  0  0  0
 32 67  1  0  0  0
 32 68  1  0  0  0
 32 69  1  0  0  0
 33 35  1  0  0  0
 33 36  2  0  0  0
 34 70  1  0  0  0
 35 37  1  0  0  0
 35 71  1  0  0  0
 37 38  1  0  0  0
 37 72  1  0  0  0
 37 73  1  0  0  0
 38 39  1  0  0  0
 38 74  1  0  0  0
 38 75  1  0  0  0
 39 40  1  0  0  0
 39 41  2  0  0  0
 40 42  1  0  0  0
 40 76  1  0  0  0
 42 43  1  0  0  0
 42 77  1  0  0  0
 42 78  1  0  0  0
 43 44  1  0  0  0
 43 79  1  0  0  0
 43 80  1  0  0  0
 44 45  1  0  0  0
 45 46  1  0  0  0
 45 47  2  0  0  0
 46 48  2  0  0  0
 46 81  1  0  0  0
 48 49  1  0  0  0
 48 82  1  0  0  0
 49 83  1  0  0  0
 49 84  1  0  0  0
 49 85  1  0  0  0
M  CHG  4  86  -1  87  -1  88  -1  89  -1
M  END
> <i_ionizer_Ion_state_n>
30

> <i_ionizer_Tot_Q>
-4

> <s_ionizer_Ion_centers>
86_87_88_89

> <s_ionizer_Ion_types>
OM_OM_OM_OM

> <s_ionizer_Ion_ctrs_in>
21_22_26_30

> <r_ionizer_Ionization_penalty>
4.85714e-05

> <r_ionizer_Ionization_penalty_charging>
2.98356e-05

> <r_ionizer_Ionization_penalty_neutral>
1.87357e-05

> <s_st_Chirality_1>
2_R_6_1_5_50

> <s_st_Chirality_2>
5_R_11_2_10_52

> <s_st_Chirality_3>
10_R_15_5_12_53

> <s_st_Chirality_4>
12_R_6_10_16_55

> <s_st_Chirality_5>
30_R_34_33_29_63

> <s_st_EZ_1>
45_46_48_49_E

> <i_mmod_Serial_Number-OPLS-2005>
350

> <i_i_glide_lignum>
347

> <r_i_docking_score>
-6.35425

> <r_i_glide_gscore>
-6.35425

> <r_i_glide_lipo>
-0.94938

> <r_i_glide_hbond>
-1.55526

> <r_i_glide_metal>
0

> <r_i_glide_eburp>
3.27429e-17

> <r_i_glide_evdw>
-44.698

> <r_i_glide_ecoul>
-7.55474

> <r_i_glide_erotb>
0.555457

> <r_i_glide_esite>
-0.0737563

> <r_i_glide_emodel>
-96.4311

> <r_i_glide_energy>
-52.2527

> <r_i_glide_einternal>
8.28038

> <i_i_glide_confnum>
673

> <i_i_glide_posenum>
850

$$$$
C07715
                    3D
 Structure written by MMmdl.
 23 25  0  0  1  0            999 V2000
    1.3503    3.5587    2.6598 C   0  0  0  0  0  0
    1.9063    2.3216    3.1917 C   0  0  0  0  0  0
    2.3805    4.2662    2.0297 C   0  0  0  0  0  0
    0.0412    4.0711    2.7004 C   0  0  0  0  0  0
    3.2706    2.2857    2.8812 C   0  0  0  0  0  0
    1.2993    1.2716    3.9040 C   0  0  0  0  0  0
    3.7018    3.5218    2.1113 C   0  0  0  0  0  0
    2.1445    5.5094    1.4172 C   0  0  0  0  0  0
   -0.2102    5.3194    2.0888 C   0  0  0  0  0  0
    4.0798    1.2033    3.2686 C   0  0  0  0  0  0
    2.1007    0.1776    4.2995 C   0  0  0  0  0  0
    0.8332    6.0330    1.4522 C   0  0  0  0  0  0
    3.4801    0.1437    3.9843 C   0  0  0  0  0  0
   -0.7532    3.5244    3.1868 H   0  0  0  0  0  0
    0.2465    1.3001    4.1431 H   0  0  0  0  0  0
    4.0777    3.2648    1.1206 H   0  0  0  0  0  0
    4.4499    4.0941    2.6603 H   0  0  0  0  0  0
    2.9442    6.0501    0.9327 H   0  0  0  0  0  0
   -1.2078    5.7329    2.1073 H   0  0  0  0  0  0
    5.1320    1.1822    3.0256 H   0  0  0  0  0  0
    1.6565   -0.6403    4.8474 H   0  0  0  0  0  0
    0.6250    6.9863    0.9891 H   0  0  0  0  0  0
    4.0794   -0.6999    4.2937 H   0  0  0  0  0  0
  1  2  1  0  0  0
  1  3  1  0  0  0
  1  4  2  0  0  0
  2  5  2  0  0  0
  2  6  1  0  0  0
  3  7  1  0  0  0
  3  8  2  0  0  0
  4  9  1  0  0  0
  4 14  1  0  0  0
  5 10  1  0  0  0
  5  7  1  0  0  0
  6 11  2  0  0  0
  6 15  1  0  0  0
  7 16  1  0  0  0
  7 17  1  0  0  0
  8 12  1  0  0  0
  8 18  1  0  0  0
  9 12  2  0  0  0
  9 19  1  0  0  0
 10 13  2  0  0  0
 10 20  1  0  0  0
 11 13  1  0  0  0
 11 21  1  0  0  0
 12 22  1  0  0  0
 13 23  1  0  0  0
M  END
> <i_ionizer_Ion_state_n>
0

> <i_ionizer_Tot_Q>
0

> <s_ionizer_Ion_centers>


> <s_ionizer_Ion_types>


> <s_ionizer_Ion_ctrs_in>


> <r_ionizer_Ionization_penalty>
0

> <r_ionizer_Ionization_penalty_charging>
0

> <r_ionizer_Ionization_penalty_neutral>
0

> <i_mmod_Serial_Number-OPLS-2005>
902

> <i_i_glide_lignum>
890

> <r_i_docking_score>
-6.35174

> <r_i_glide_gscore>
-6.35174

> <r_i_glide_lipo>
-1.19322

> <r_i_glide_hbond>
0

> <r_i_glide_metal>
0

> <r_i_glide_eburp>
-2.5

> <r_i_glide_evdw>
-22.9943

> <r_i_glide_ecoul>
-0.427411

> <r_i_glide_erotb>
0

> <r_i_glide_esite>
-0.776241

> <r_i_glide_emodel>
-29.2624

> <r_i_glide_energy>
-23.4217

> <r_i_glide_einternal>
0

> <i_i_glide_confnum>
1

> <i_i_glide_posenum>
695

$$$$
C01170
                    3D
 Structure written by MMmdl.
 64 66  0  0  1  0            999 V2000
   -3.7587   10.3805    5.7123 C   0  0  2  0  0  0
   -3.3303   10.3002    7.1599 N   0  0  0  0  0  0
   -3.5868    9.1252    5.1143 O   0  0  0  0  0  0
   -2.8751   11.3884    4.9611 C   0  0  1  0  0  0
   -4.2862   10.5566    8.1644 C   0  0  0  0  0  0
   -2.0173   10.0272    7.5227 C   0  0  0  0  0  0
   -2.7355    9.2306    3.9752 C   0  0  1  0  0  0
   -1.8890   10.4656    4.2669 C   0  0  1  0  0  0
   -3.6341   12.1502    4.0414 O   0  0  0  0  0  0
   -3.8475   10.5055    9.4875 N   0  0  0  0  0  0
   -5.4588   10.8299    7.9140 O   0  0  0  0  0  0
   -1.6011    9.9850    8.8100 C   0  0  0  0  0  0
   -1.9164    7.9460    3.7923 C   0  0  0  0  0  0
   -1.3145   11.0395    3.1080 O   0  0  0  0  0  0
   -2.5407   10.2308    9.8989 C   0  0  0  0  0  0
   -1.3629    7.9372    2.4913 O   0  0  0  0  0  0
   -2.2612   10.2162   11.0952 O   0  0  0  0  0  0
   -1.3654    6.5393    1.5173 P   0  0  0  0  0  0
    0.0698    5.7151    1.9271 O   0  0  0  0  0  0
   -2.5313    5.7122    1.9009 O   0  0  0  0  0  0
    0.5458    4.5854    3.1089 P   0  0  0  0  0  0
    1.7190    3.6422    2.3061 O   0  0  0  0  0  0
    1.2235    5.3005    4.2151 O   0  0  0  0  0  0
    2.1522    2.3995    2.8232 C   0  0  2  0  0  0
    3.6931    2.3308    2.8990 C   0  0  2  0  0  0
    1.6927    1.3109    2.0345 O   0  0  0  0  0  0
    4.1844    0.8560    3.0128 C   0  0  2  0  0  0
    4.1826    3.1534    4.0077 N   0  0  0  0  0  0
    1.7935    0.0374    2.6720 C   0  0  1  0  0  0
    3.0749   -0.0741    3.5431 C   0  0  1  0  0  0
    5.3291    0.7266    3.8400 O   0  0  0  0  0  0
    4.2929    4.4895    4.0065 C   0  0  0  0  0  0
    0.4921   -0.2291    3.4510 C   0  0  0  0  0  0
    3.5309   -1.4136    3.5025 O   0  0  0  0  0  0
    4.1338    5.1747    2.6545 C   0  0  0  0  0  0
    4.4998    5.1600    5.0167 O   0  0  0  0  0  0
    0.6356   -1.3478    4.3015 O   0  0  0  0  0  0
   -4.8189   10.6397    5.7268 H   0  0  0  0  0  0
   -2.3797   12.0774    5.6455 H   0  0  0  0  0  0
   -1.2770    9.8430    6.7595 H   0  0  0  0  0  0
   -3.3634    9.4074    3.1002 H   0  0  0  0  0  0
   -1.1009   10.1935    4.9653 H   0  0  0  0  0  0
   -3.8376   11.5905    3.3063 H   0  0  0  0  0  0
   -4.5321   10.6780   10.2088 H   0  0  0  0  0  0
   -0.5658    9.7713    9.0338 H   0  0  0  0  0  0
   -1.1291    7.8777    4.5420 H   0  0  0  0  0  0
   -2.5497    7.0675    3.9150 H   0  0  0  0  0  0
   -1.9617   10.9929    2.4176 H   0  0  0  0  0  0
    1.7452    2.2893    3.8258 H   0  0  0  0  0  0
    4.0965    2.7170    1.9612 H   0  0  0  0  0  0
    4.4632    0.5139    2.0147 H   0  0  0  0  0  0
    4.5198    2.6542    4.8188 H   0  0  0  0  0  0
    1.8512   -0.6752    1.8474 H   0  0  0  0  0  0
    2.8504    0.1907    4.5779 H   0  0  0  0  0  0
    5.4229   -0.1892    4.0577 H   0  0  0  0  0  0
    0.1984    0.6394    4.0384 H   0  0  0  0  0  0
   -0.3239   -0.4307    2.7564 H   0  0  0  0  0  0
    4.1028   -1.5486    4.2448 H   0  0  0  0  0  0
    4.4940    6.2030    2.6996 H   0  0  0  0  0  0
    4.7023    4.6519    1.8853 H   0  0  0  0  0  0
    3.0847    5.1901    2.3596 H   0  0  0  0  0  0
    0.2656   -2.1022    3.8676 H   0  0  0  0  0  0
   -1.2337    7.0019    0.1177 O   0  5  0  0  0  0
   -0.6026    3.7015    3.4090 O   0  5  0  0  0  0
  1  2  1  0  0  0
  1  3  1  0  0  0
  1  4  1  0  0  0
  1 38  1  0  0  0
  2  5  1  0  0  0
  2  6  1  0  0  0
  3  7  1  0  0  0
  4  8  1  0  0  0
  4  9  1  0  0  0
  4 39  1  0  0  0
  5 10  1  0  0  0
  5 11  2  0  0  0
  6 12  2  0  0  0
  6 40  1  0  0  0
  7 13  1  0  0  0
  7  8  1  0  0  0
  7 41  1  0  0  0
  8 14  1  0  0  0
  8 42  1  0  0  0
  9 43  1  0  0  0
 10 15  1  0  0  0
 10 44  1  0  0  0
 12 15  1  0  0  0
 12 45  1  0  0  0
 13 16  1  0  0  0
 13 46  1  0  0  0
 13 47  1  0  0  0
 14 48  1  0  0  0
 15 17  2  0  0  0
 16 18  1  0  0  0
 18 19  1  0  0  0
 18 20  2  0  0  0
 18 63  1  0  0  0
 19 21  1  0  0  0
 21 22  1  0  0  0
 21 23  2  0  0  0
 21 64  1  0  0  0
 22 24  1  0  0  0
 24 25  1  0  0  0
 24 26  1  0  0  0
 24 49  1  0  0  0
 25 27  1  0  0  0
 25 28  1  0  0  0
 25 50  1  0  0  0
 26 29  1  0  0  0
 27 30  1  0  0  0
 27 31  1  0  0  0
 27 51  1  0  0  0
 28 32  1  0  0  0
 28 52  1  0  0  0
 29 33  1  0  0  0
 29 30  1  0  0  0
 29 53  1  0  0  0
 30 34  1  0  0  0
 30 54  1  0  0  0
 31 55  1  0  0  0
 32 35  1  0  0  0
 32 36  2  0  0  0
 33 37  1  0  0  0
 33 56  1  0  0  0
 33 57  1  0  0  0
 34 58  1  0  0  0
 35 59  1  0  0  0
 35 60  1  0  0  0
 35 61  1  0  0  0
 37 62  1  0  0  0
M  CHG  2  63  -1  64  -1
M  END
> <i_ionizer_Ion_state_n>
3

> <i_ionizer_Tot_Q>
-2

> <s_ionizer_Ion_centers>
63_64

> <s_ionizer_Ion_types>
OM_OM

> <s_ionizer_Ion_ctrs_in>
20_24

> <r_ionizer_Ionization_penalty>
1.49178e-05

> <r_ionizer_Ionization_penalty_charging>
1.49178e-05

> <r_ionizer_Ionization_penalty_neutral>
0

> <s_st_Chirality_1>
1_R_3_2_4_38

> <s_st_Chirality_2>
4_R_9_1_8_39

> <s_st_Chirality_3>
7_R_3_8_13_41

> <s_st_Chirality_4>
8_R_14_4_7_42

> <s_st_Chirality_5>
25_S_28_24_27_50

> <s_st_Chirality_6>
27_R_31_30_25_51

> <s_st_Chirality_7>
29_R_26_30_33_53

> <s_st_Chirality_8>
30_S_34_29_27_54

> <s_st_Chirality_9>
24_R_22_26_25_49

> <i_mmod_Serial_Number-OPLS-2005>
412

> <i_i_glide_lignum>
408

> <r_i_docking_score>
-6.35154

> <r_i_glide_gscore>
-6.35154

> <r_i_glide_lipo>
-0.947616

> <r_i_glide_hbond>
-2.75291

> <r_i_glide_metal>
0

> <r_i_glide_eburp>
0.752913

> <r_i_glide_evdw>
-30.1144

> <r_i_glide_ecoul>
-15.4274

> <r_i_glide_erotb>
0.517604

> <r_i_glide_esite>
0.0303617

> <r_i_glide_emodel>
-100.904

> <r_i_glide_energy>
-45.5418

> <r_i_glide_einternal>
16.3464

> <i_i_glide_confnum>
36

> <i_i_glide_posenum>
690

$$$$
C05636
                    3D
 Structure written by MMmdl.
 26 26  0  0  1  0            999 V2000
    3.9274    1.0060    3.1094 C   0  0  0  0  0  0
    2.6852    0.3281    3.2973 C   0  0  0  0  0  0
    4.8164    1.4032    4.2525 C   0  0  0  0  0  0
    4.3561    1.2744    1.7857 C   0  0  0  0  0  0
    1.9060   -0.0468    2.1752 C   0  0  0  0  0  0
    2.2049    0.0382    4.5213 N   0  0  0  0  0  0
    5.8886    0.3925    4.6945 C   0  0  0  0  0  0
    4.7393    2.4859    4.8355 O   0  0  0  0  0  0
    3.5749    0.8998    0.6781 C   0  0  0  0  0  0
    2.3505    0.2407    0.8720 C   0  0  0  0  0  0
    0.7114   -0.6942    2.3360 O   0  0  0  0  0  0
    6.2922    0.5379    6.1737 C   0  0  0  0  0  0
    5.2978    1.7646    1.5903 H   0  0  0  0  0  0
    1.4130   -0.5850    4.5965 H   0  0  0  0  0  0
    2.8214    0.0761    5.3216 H   0  0  0  0  0  0
    5.5101   -0.6152    4.5192 H   0  0  0  0  0  0
    6.7701    0.5215    4.0648 H   0  0  0  0  0  0
    3.9190    1.1142   -0.3231 H   0  0  0  0  0  0
    1.7564   -0.0459    0.0167 H   0  0  0  0  0  0
    0.5386   -0.9392    3.2318 H   0  0  0  0  0  0
    7.0083    1.3517    6.2973 H   0  0  0  0  0  0
    5.4230    0.7761    6.7885 H   0  0  0  0  0  0
    7.1532   -0.5728    7.6595 H   0  0  0  0  0  0
    6.2391   -1.4609    6.6150 H   0  0  0  0  0  0
    6.9003   -0.7009    6.6898 N   0  3  0  0  0  0
    7.7285   -0.9216    6.1553 H   0  0  0  0  0  0
  1  2  1  0  0  0
  1  3  1  0  0  0
  1  4  2  0  0  0
  2  5  2  0  0  0
  2  6  1  0  0  0
  3  7  1  0  0  0
  3  8  2  0  0  0
  4  9  1  0  0  0
  4 13  1  0  0  0
  5 10  1  0  0  0
  5 11  1  0  0  0
  6 14  1  0  0  0
  6 15  1  0  0  0
  7 12  1  0  0  0
  7 16  1  0  0  0
  7 17  1  0  0  0
  9 10  2  0  0  0
  9 18  1  0  0  0
 10 19  1  0  0  0
 11 20  1  0  0  0
 12 21  1  0  0  0
 12 22  1  0  0  0
 12 25  1  0  0  0
 23 25  1  0  0  0
 24 25  1  0  0  0
 25 26  1  0  0  0
M  CHG  1  25   1
M  END
> <i_ionizer_Ion_state_n>
4

> <i_ionizer_Tot_Q>
1

> <s_ionizer_Ion_centers>
25

> <s_ionizer_Ion_types>
N5

> <s_ionizer_Ion_ctrs_in>
13

> <r_ionizer_Ionization_penalty>
0.00265017

> <r_ionizer_Ionization_penalty_charging>
0.000187331

> <r_ionizer_Ionization_penalty_neutral>
0.00246284

> <i_mmod_Serial_Number-OPLS-2005>
763

> <i_i_glide_lignum>
754

> <r_i_docking_score>
-6.34951

> <r_i_glide_gscore>
-6.34951

> <r_i_glide_lipo>
-0.807103

> <r_i_glide_hbond>
-0.999821

> <r_i_glide_metal>
0

> <r_i_glide_eburp>
-2.41503

> <r_i_glide_evdw>
-22.7434

> <r_i_glide_ecoul>
-9.39771

> <r_i_glide_erotb>
1.09888

> <r_i_glide_esite>
-0.467194

> <r_i_glide_emodel>
-53.0433

> <r_i_glide_energy>
-32.1411

> <r_i_glide_einternal>
3.19599

> <i_i_glide_confnum>
4

> <i_i_glide_posenum>
113

$$$$
C03582
                    3D
 Structure written by MMmdl.
 29 30  0  0  1  0            999 V2000
    3.9313    2.9264    3.3708 C   0  0  0  0  0  0
    4.8965    2.3324    4.2114 C   0  0  0  0  0  0
    4.2122    4.2507    2.7895 C   0  0  0  0  0  0
    2.7315    2.2279    3.1061 C   0  0  0  0  0  0
    4.6723    1.0609    4.7748 C   0  0  0  0  0  0
    3.3466    5.2012    2.3785 C   0  0  0  0  0  0
    2.5042    0.9559    3.6666 C   0  0  0  0  0  0
    3.4755    0.3705    4.5015 C   0  0  0  0  0  0
    5.6178    0.5003    5.5836 O   0  0  0  0  0  0
    1.8793    5.1352    2.2637 C   0  0  0  0  0  0
    1.3412    0.2942    3.3987 O   0  0  0  0  0  0
    1.2109    6.1133    1.4970 C   0  0  0  0  0  0
    1.1190    4.1301    2.9038 C   0  0  0  0  0  0
   -0.1922    6.0930    1.3749 C   0  0  0  0  0  0
   -0.2841    4.1076    2.7841 C   0  0  0  0  0  0
   -0.9414    5.0906    2.0196 C   0  0  0  0  0  0
   -2.3005    5.0731    1.9011 O   0  0  0  0  0  0
    5.8196    2.8527    4.4231 H   0  0  0  0  0  0
    5.2623    4.4987    2.7320 H   0  0  0  0  0  0
    1.9737    2.6691    2.4753 H   0  0  0  0  0  0
    3.7787    6.1320    2.0404 H   0  0  0  0  0  0
    3.3026   -0.6050    4.9322 H   0  0  0  0  0  0
    5.4505   -0.4084    5.7810 H   0  0  0  0  0  0
    1.2807   -0.5455    3.8277 H   0  0  0  0  0  0
    1.7745    6.8902    1.0013 H   0  0  0  0  0  0
    1.6088    3.3638    3.4863 H   0  0  0  0  0  0
   -0.6919    6.8489    0.7870 H   0  0  0  0  0  0
   -0.8504    3.3329    3.2800 H   0  0  0  0  0  0
   -2.6363    5.7751    1.3653 H   0  0  0  0  0  0
  1  2  2  0  0  0
  1  3  1  0  0  0
  1  4  1  0  0  0
  2  5  1  0  0  0
  2 18  1  0  0  0
  3  6  2  0  0  0
  3 19  1  0  0  0
  4  7  2  0  0  0
  4 20  1  0  0  0
  5  8  2  0  0  0
  5  9  1  0  0  0
  6 10  1  0  0  0
  6 21  1  0  0  0
  7 11  1  0  0  0
  7  8  1  0  0  0
  8 22  1  0  0  0
  9 23  1  0  0  0
 10 12  1  0  0  0
 10 13  2  0  0  0
 11 24  1  0  0  0
 12 14  2  0  0  0
 12 25  1  0  0  0
 13 15  1  0  0  0
 13 26  1  0  0  0
 14 16  1  0  0  0
 14 27  1  0  0  0
 15 16  2  0  0  0
 15 28  1  0  0  0
 16 17  1  0  0  0
 17 29  1  0  0  0
M  END
> <i_ionizer_Ion_state_n>
0

> <i_ionizer_Tot_Q>
0

> <s_ionizer_Ion_centers>


> <s_ionizer_Ion_types>


> <s_ionizer_Ion_ctrs_in>


> <r_ionizer_Ionization_penalty>
0.00177657

> <r_ionizer_Ionization_penalty_charging>
0

> <r_ionizer_Ionization_penalty_neutral>
0.00177657

> <s_st_EZ_1>
1_3_6_10_Z

> <i_mmod_Serial_Number-OPLS-2005>
557

> <i_i_glide_lignum>
551

> <r_i_docking_score>
-6.34459

> <r_i_glide_gscore>
-6.34459

> <r_i_glide_lipo>
-1.29367

> <r_i_glide_hbond>
-0.67994

> <r_i_glide_metal>
0

> <r_i_glide_eburp>
-2.05871

> <r_i_glide_evdw>
-25.9973

> <r_i_glide_ecoul>
-7.18027

> <r_i_glide_erotb>
0.747434

> <r_i_glide_esite>
-0.261888

> <r_i_glide_emodel>
-48.732

> <r_i_glide_energy>
-33.1776

> <r_i_glide_einternal>
1.04907

> <i_i_glide_confnum>
5

> <i_i_glide_posenum>
758

$$$$
C00085
                    3D
 Structure written by MMmdl.
 27 27  0  0  1  0            999 V2000
    2.1054    2.0534    3.0396 C   0  0  1  0  0  0
    2.8689    1.5191    4.1431 O   0  0  0  0  0  0
    2.4196    1.0828    1.8912 C   0  0  2  0  0  0
    0.5900    2.3117    3.1969 C   0  0  0  0  0  0
    3.2296    0.2099    3.9571 C   0  0  1  0  0  0
    2.6562   -0.2250    2.6136 C   0  0  1  0  0  0
    3.5905    1.4885    1.2079 O   0  0  0  0  0  0
    0.3125    3.5099    3.9020 O   0  0  0  0  0  0
    4.7672    0.2877    3.8766 C   0  0  0  0  0  0
    2.8613   -0.7012    4.9762 O   0  0  0  0  0  0
    1.4731   -0.9894    2.7516 O   0  0  0  0  0  0
   -0.0591    4.9345    2.8762 P   0  0  0  0  0  0
    5.3765    0.5078    5.1345 O   0  0  0  0  0  0
    1.0302    4.8516    1.7815 O   0  0  0  0  0  0
    2.5936    3.0063    2.8295 H   0  0  0  0  0  0
    1.6034    1.0150    1.1758 H   0  0  0  0  0  0
    0.1004    2.3261    2.2231 H   0  0  0  0  0  0
    0.1308    1.4808    3.7320 H   0  0  0  0  0  0
    3.4116   -0.7986    2.0732 H   0  0  0  0  0  0
    3.7813    0.8393    0.5482 H   0  0  0  0  0  0
    5.1428   -0.6578    3.4837 H   0  0  0  0  0  0
    5.0549    1.0697    3.1728 H   0  0  0  0  0  0
    3.6143   -1.1954    5.2899 H   0  0  0  0  0  0
    0.9579   -0.5979    3.4417 H   0  0  0  0  0  0
    5.2729   -0.2720    5.6581 H   0  0  0  0  0  0
   -1.4993    4.6169    2.4181 O   0  5  0  0  0  0
    0.0921    6.0895    3.8894 O   0  5  0  0  0  0
  1  2  1  0  0  0
  1  3  1  0  0  0
  1  4  1  0  0  0
  1 15  1  0  0  0
  2  5  1  0  0  0
  3  6  1  0  0  0
  3  7  1  0  0  0
  3 16  1  0  0  0
  4  8  1  0  0  0
  4 17  1  0  0  0
  4 18  1  0  0  0
  5  9  1  0  0  0
  5 10  1  0  0  0
  5  6  1  0  0  0
  6 11  1  0  0  0
  6 19  1  0  0  0
  7 20  1  0  0  0
  8 12  1  0  0  0
  9 13  1  0  0  0
  9 21  1  0  0  0
  9 22  1  0  0  0
 10 23  1  0  0  0
 11 24  1  0  0  0
 12 14  2  0  0  0
 12 26  1  0  0  0
 12 27  1  0  0  0
 13 25  1  0  0  0
M  CHG  2  26  -1  27  -1
M  END
> <i_ionizer_Ion_state_n>
3

> <i_ionizer_Tot_Q>
-2

> <s_ionizer_Ion_centers>
26_27

> <s_ionizer_Ion_types>
OM_OM

> <s_ionizer_Ion_ctrs_in>
14_15

> <r_ionizer_Ionization_penalty>
1.49178e-05

> <r_ionizer_Ionization_penalty_charging>
1.49178e-05

> <r_ionizer_Ionization_penalty_neutral>
0

> <s_st_Chirality_1>
1_R_2_3_4_15

> <s_st_Chirality_2>
3_R_7_6_1_16

> <s_st_Chirality_3>
6_S_11_5_3_19

> <s_st_Chirality_4>
5_R_2_10_6_9

> <i_mmod_Serial_Number-OPLS-2005>
60

> <i_i_glide_lignum>
59

> <r_i_docking_score>
-6.33883

> <r_i_glide_gscore>
-6.33883

> <r_i_glide_lipo>
-0.44002

> <r_i_glide_hbond>
-2.06021

> <r_i_glide_metal>
0

> <r_i_glide_eburp>
-2.2324

> <r_i_glide_evdw>
-17.2324

> <r_i_glide_ecoul>
-13.9399

> <r_i_glide_erotb>
0.9087

> <r_i_glide_esite>
0.257681

> <r_i_glide_emodel>
-61.2239

> <r_i_glide_energy>
-31.1723

> <r_i_glide_einternal>
12.3922

> <i_i_glide_confnum>
61

> <i_i_glide_posenum>
439

$$$$
C04256
                    3D
 Structure written by MMmdl.
 33 33  0  0  1  0            999 V2000
    2.7801    1.2560    1.7971 C   0  0  1  0  0  0
    2.1981    2.6890    1.8785 C   0  0  2  0  0  0
    3.3638    0.8502    3.1636 C   0  0  2  0  0  0
    1.7636    0.3076    1.3554 N   0  0  0  0  0  0
    3.2831    3.5462    2.2176 O   0  0  0  0  0  0
    1.1230    2.8215    2.8084 O   0  0  0  0  0  0
    4.3586    1.9196    3.6609 C   0  0  1  0  0  0
    4.0834   -0.3619    3.0273 O   0  0  0  0  0  0
    0.8388   -0.2884    2.1194 C   0  0  0  0  0  0
    3.7849    3.3527    3.5385 C   0  0  1  0  0  0
    0.3026    4.4127    2.9893 P   0  0  0  0  0  0
    4.6439    1.6531    5.0213 O   0  0  0  0  0  0
    1.1926   -0.4406    3.5940 C   0  0  0  0  0  0
   -0.2425   -0.6980    1.6975 O   0  0  0  0  0  0
    4.8387    4.4553    3.7559 C   0  0  0  0  0  0
    0.9005    4.9763    4.2974 O   0  0  0  0  0  0
    4.5002    5.2936    4.8429 O   0  0  0  0  0  0
    3.5945    1.2826    1.0703 H   0  0  0  0  0  0
    1.8728    3.0040    0.8878 H   0  0  0  0  0  0
    2.5540    0.7189    3.8840 H   0  0  0  0  0  0
    1.8075    0.0448    0.3738 H   0  0  0  0  0  0
    5.2822    1.8607    3.0825 H   0  0  0  0  0  0
    4.3568   -0.6314    3.8912 H   0  0  0  0  0  0
    2.9716    3.4985    4.2519 H   0  0  0  0  0  0
    4.9429    0.7563    5.0830 H   0  0  0  0  0  0
    0.3490   -0.8400    4.1575 H   0  0  0  0  0  0
    2.0382   -1.1184    3.7121 H   0  0  0  0  0  0
    1.4633    0.5262    4.0201 H   0  0  0  0  0  0
    5.8271    4.0243    3.9186 H   0  0  0  0  0  0
    4.9067    5.0791    2.8641 H   0  0  0  0  0  0
    3.7105    5.7649    4.6236 H   0  0  0  0  0  0
    0.7325    5.1319    1.6907 O   0  5  0  0  0  0
   -1.1794    3.9854    3.0587 O   0  5  0  0  0  0
  1  2  1  0  0  0
  1  3  1  0  0  0
  1  4  1  0  0  0
  1 18  1  0  0  0
  2  5  1  0  0  0
  2  6  1  0  0  0
  2 19  1  0  0  0
  3  7  1  0  0  0
  3  8  1  0  0  0
  3 20  1  0  0  0
  4  9  1  0  0  0
  4 21  1  0  0  0
  5 10  1  0  0  0
  6 11  1  0  0  0
  7 12  1  0  0  0
  7 10  1  0  0  0
  7 22  1  0  0  0
  8 23  1  0  0  0
  9 13  1  0  0  0
  9 14  2  0  0  0
 10 15  1  0  0  0
 10 24  1  0  0  0
 11 16  2  0  0  0
 11 32  1  0  0  0
 11 33  1  0  0  0
 12 25  1  0  0  0
 13 26  1  0  0  0
 13 27  1  0  0  0
 13 28  1  0  0  0
 15 17  1  0  0  0
 15 29  1  0  0  0
 15 30  1  0  0  0
 17 31  1  0  0  0
M  CHG  2  32  -1  33  -1
M  END
> <i_ionizer_Ion_state_n>
3

> <i_ionizer_Tot_Q>
-2

> <s_ionizer_Ion_centers>
32_33

> <s_ionizer_Ion_types>
OM_OM

> <s_ionizer_Ion_ctrs_in>
16_17

> <r_ionizer_Ionization_penalty>
1.49178e-05

> <r_ionizer_Ionization_penalty_charging>
1.49178e-05

> <r_ionizer_Ionization_penalty_neutral>
0

> <s_st_Chirality_1>
1_R_4_2_3_18

> <s_st_Chirality_2>
3_R_8_7_1_20

> <s_st_Chirality_3>
7_S_12_10_3_22

> <s_st_Chirality_4>
10_R_5_7_15_24

> <s_st_Chirality_5>
2_R_6_5_1_19

> <i_mmod_Serial_Number-OPLS-2005>
585

> <i_i_glide_lignum>
579

> <r_i_docking_score>
-6.33481

> <r_i_glide_gscore>
-6.33481

> <r_i_glide_lipo>
-0.554919

> <r_i_glide_hbond>
-1.57844

> <r_i_glide_metal>
0

> <r_i_glide_eburp>
-1.52139

> <r_i_glide_evdw>
-16.5008

> <r_i_glide_ecoul>
-10.2053

> <r_i_glide_erotb>
0.703377

> <r_i_glide_esite>
-1.04284

> <r_i_glide_emodel>
-55.0886

> <r_i_glide_energy>
-26.706

> <r_i_glide_einternal>
18.0818

> <i_i_glide_confnum>
9

> <i_i_glide_posenum>
655

$$$$
C00185
                    3D
 Structure written by MMmdl.
 45 46  0  0  1  0            999 V2000
    1.2570    4.3967    2.2009 C   0  0  1  0  0  0
    2.1499    5.4260    1.4749 C   0  0  2  0  0  0
    2.0518    3.8467    3.2622 O   0  0  0  0  0  0
    0.0480    5.0991    2.8486 C   0  0  1  0  0  0
    1.3387    6.1628    0.5664 O   0  0  0  0  0  0
    3.2677    4.7593    0.6545 C   0  0  0  0  0  0
    2.5412    2.5428    3.0454 C   0  0  2  0  0  0
   -0.6697    6.0198    1.8401 C   0  0  2  0  0  0
   -0.8913    4.1161    3.2387 O   0  0  0  0  0  0
    0.3655    6.9492    1.1764 C   0  0  2  0  0  0
    4.2116    4.1601    1.5174 O   0  0  0  0  0  0
    1.5439    1.5593    3.1804 O   0  0  0  0  0  0
    3.6838    2.2587    4.0317 C   0  0  1  0  0  0
   -1.6318    6.7764    2.5502 O   0  0  0  0  0  0
   -0.2755    7.7591    0.2188 O   0  0  0  0  0  0
    1.9527    0.2347    2.8227 C   0  0  1  0  0  0
    4.2086    0.8204    3.8519 C   0  0  2  0  0  0
    4.7282    3.1980    3.7938 O   0  0  0  0  0  0
    3.0503   -0.1998    3.8259 C   0  0  2  0  0  0
    0.6743   -0.6260    2.8497 C   0  0  0  0  0  0
    5.1097    0.5086    4.9118 O   0  0  0  0  0  0
    3.5524   -1.4935    3.5014 O   0  0  0  0  0  0
   -0.2907   -0.2089    1.8903 O   0  0  0  0  0  0
    0.9256    3.6288    1.4981 H   0  0  0  0  0  0
    2.5916    6.1015    2.2108 H   0  0  0  0  0  0
    0.3715    5.6718    3.7195 H   0  0  0  0  0  0
    2.8621    3.9646    0.0287 H   0  0  0  0  0  0
    3.7555    5.4751   -0.0079 H   0  0  0  0  0  0
    2.8918    2.5043    2.0043 H   0  0  0  0  0  0
   -1.1593    5.4357    1.0584 H   0  0  0  0  0  0
   -1.0985    3.5973    2.4757 H   0  0  0  0  0  0
    0.8339    7.6194    1.9001 H   0  0  0  0  0  0
    4.8751    4.7991    1.7287 H   0  0  0  0  0  0
    3.3043    2.3947    5.0456 H   0  0  0  0  0  0
   -1.7978    7.5678    2.0596 H   0  0  0  0  0  0
   -0.0287    8.6557    0.3876 H   0  0  0  0  0  0
    2.3488    0.2525    1.8055 H   0  0  0  0  0  0
    4.7496    0.7608    2.9057 H   0  0  0  0  0  0
    4.4348    4.0605    4.1194 H   0  0  0  0  0  0
    2.6015   -0.2480    4.8194 H   0  0  0  0  0  0
    0.9175   -1.6756    2.6822 H   0  0  0  0  0  0
    0.2172   -0.5658    3.8381 H   0  0  0  0  0  0
    5.3042   -0.4380    4.8808 H   0  0  0  0  0  0
    4.0258   -1.8424    4.2685 H   0  0  0  0  0  0
   -0.7194    0.5956    2.2127 H   0  0  0  0  0  0
  1  2  1  0  0  0
  1  3  1  0  0  0
  1  4  1  0  0  0
  1 24  1  0  0  0
  2  5  1  0  0  0
  2  6  1  0  0  0
  2 25  1  0  0  0
  3  7  1  0  0  0
  4  8  1  0  0  0
  4  9  1  0  0  0
  4 26  1  0  0  0
  5 10  1  0  0  0
  6 11  1  0  0  0
  6 27  1  0  0  0
  6 28  1  0  0  0
  7 12  1  0  0  0
  7 13  1  0  0  0
  7 29  1  0  0  0
  8 14  1  0  0  0
  8 10  1  0  0  0
  8 30  1  0  0  0
  9 31  1  0  0  0
 10 15  1  0  0  0
 10 32  1  0  0  0
 11 33  1  0  0  0
 12 16  1  0  0  0
 13 17  1  0  0  0
 13 18  1  0  0  0
 13 34  1  0  0  0
 14 35  1  0  0  0
 15 36  1  0  0  0
 16 19  1  0  0  0
 16 20  1  0  0  0
 16 37  1  0  0  0
 17 21  1  0  0  0
 17 19  1  0  0  0
 17 38  1  0  0  0
 18 39  1  0  0  0
 19 22  1  0  0  0
 19 40  1  0  0  0
 20 23  1  0  0  0
 20 41  1  0  0  0
 20 42  1  0  0  0
 21 43  1  0  0  0
 22 44  1  0  0  0
 23 45  1  0  0  0
M  END
> <i_ionizer_Ion_state_n>
0

> <i_ionizer_Tot_Q>
0

> <s_ionizer_Ion_centers>


> <s_ionizer_Ion_types>


> <s_ionizer_Ion_ctrs_in>


> <r_ionizer_Ionization_penalty>
0

> <r_ionizer_Ionization_penalty_charging>
0

> <r_ionizer_Ionization_penalty_neutral>
0

> <s_st_Chirality_1>
1_R_3_4_2_24

> <s_st_Chirality_2>
2_R_5_1_6_25

> <s_st_Chirality_3>
4_S_9_8_1_26

> <s_st_Chirality_4>
7_S_3_12_13_29

> <s_st_Chirality_5>
8_R_14_10_4_30

> <s_st_Chirality_6>
13_R_18_7_17_34

> <s_st_Chirality_7>
16_R_12_19_20_37

> <s_st_Chirality_8>
17_S_21_13_19_38

> <s_st_Chirality_9>
19_R_22_17_16_40

> <s_st_Chirality_10>
10_R_5_15_8_32

> <i_mmod_Serial_Number-OPLS-2005>
130

> <i_i_glide_lignum>
128

> <r_i_docking_score>
-6.33107

> <r_i_glide_gscore>
-6.33107

> <r_i_glide_lipo>
-0.930553

> <r_i_glide_hbond>
-2.54316

> <r_i_glide_metal>
0

> <r_i_glide_eburp>
-0.651514

> <r_i_glide_evdw>
-10.3909

> <r_i_glide_ecoul>
-20.0125

> <r_i_glide_erotb>
0.739756

> <r_i_glide_esite>
-0.113072

> <r_i_glide_emodel>
-52.399

> <r_i_glide_energy>
-30.4034

> <r_i_glide_einternal>
9.41494

> <i_i_glide_confnum>
7

> <i_i_glide_posenum>
706

$$$$
C00212
                    3D
 Structure written by MMmdl.
 32 34  0  0  1  0            999 V2000
    2.2335    2.8761    2.8936 N   0  0  0  0  0  0
    1.4465    3.9920    2.7178 C   0  0  0  0  0  0
    1.9960    1.7950    3.8979 C   0  0  2  0  0  0
    3.2407    2.9976    1.9587 C   0  0  0  0  0  0
    2.0460    4.7273    1.6597 C   0  0  0  0  0  0
    0.3171    4.3419    3.3994 N   0  0  0  0  0  0
    3.1400    1.6992    4.6988 O   0  0  0  0  0  0
    1.8265    0.4558    3.1700 C   0  0  1  0  0  0
    3.1791    4.0643    1.2063 N   0  0  0  0  0  0
    1.3912    5.9321    1.3009 C   0  0  0  0  0  0
   -0.1865    5.4959    2.9518 C   0  0  0  0  0  0
    3.7576    0.4215    4.5528 C   0  0  1  0  0  0
    3.2423   -0.0968    3.2088 C   0  0  1  0  0  0
    0.8995   -0.3755    3.8424 O   0  0  0  0  0  0
    0.2711    6.2852    1.9737 N   0  0  0  0  0  0
    1.8277    6.7397    0.3255 N   0  0  0  0  0  0
    5.2846    0.5681    4.6429 C   0  0  0  0  0  0
    3.2744   -1.5079    3.1006 O   0  0  0  0  0  0
    5.7077    0.4999    5.9888 O   0  0  0  0  0  0
    1.1205    2.1250    4.4592 H   0  0  0  0  0  0
    4.0293    2.2680    1.8474 H   0  0  0  0  0  0
    1.4729    0.6009    2.1480 H   0  0  0  0  0  0
   -1.0840    5.8373    3.4464 H   0  0  0  0  0  0
    3.3873   -0.2088    5.3636 H   0  0  0  0  0  0
    3.8239    0.3407    2.3958 H   0  0  0  0  0  0
    1.2776   -0.6082    4.6778 H   0  0  0  0  0  0
    1.3224    7.5867    0.1107 H   0  0  0  0  0  0
    2.6616    6.4966   -0.1896 H   0  0  0  0  0  0
    5.7885   -0.2052    4.0628 H   0  0  0  0  0  0
    5.5918    1.5306    4.2330 H   0  0  0  0  0  0
    3.7578   -1.8480    3.8398 H   0  0  0  0  0  0
    5.5850   -0.3847    6.2991 H   0  0  0  0  0  0
  1  2  1  0  0  0
  1  3  1  0  0  0
  1  4  1  0  0  0
  2  5  2  0  0  0
  2  6  1  0  0  0
  3  7  1  0  0  0
  3  8  1  0  0  0
  3 20  1  0  0  0
  4  9  2  0  0  0
  4 21  1  0  0  0
  5 10  1  0  0  0
  5  9  1  0  0  0
  6 11  2  0  0  0
  7 12  1  0  0  0
  8 13  1  0  0  0
  8 14  1  0  0  0
  8 22  1  0  0  0
 10 15  2  0  0  0
 10 16  1  0  0  0
 11 15  1  0  0  0
 11 23  1  0  0  0
 12 17  1  0  0  0
 12 13  1  0  0  0
 12 24  1  0  0  0
 13 18  1  0  0  0
 13 25  1  0  0  0
 14 26  1  0  0  0
 16 27  1  0  0  0
 16 28  1  0  0  0
 17 19  1  0  0  0
 17 29  1  0  0  0
 17 30  1  0  0  0
 18 31  1  0  0  0
 19 32  1  0  0  0
M  END
> <i_ionizer_Ion_state_n>
0

> <i_ionizer_Tot_Q>
0

> <s_ionizer_Ion_centers>


> <s_ionizer_Ion_types>


> <s_ionizer_Ion_ctrs_in>


> <r_ionizer_Ionization_penalty>
1.87357e-05

> <r_ionizer_Ionization_penalty_charging>
0

> <r_ionizer_Ionization_penalty_neutral>
1.87357e-05

> <s_st_Chirality_1>
3_R_7_1_8_20

> <s_st_Chirality_2>
8_R_14_3_13_22

> <s_st_Chirality_3>
12_R_7_13_17_24

> <s_st_Chirality_4>
13_R_18_8_12_25

> <i_mmod_Serial_Number-OPLS-2005>
141

> <i_i_glide_lignum>
139

> <r_i_docking_score>
-6.32565

> <r_i_glide_gscore>
-6.32565

> <r_i_glide_lipo>
-0.597327

> <r_i_glide_hbond>
-0.920525

> <r_i_glide_metal>
0

> <r_i_glide_eburp>
-1.76329

> <r_i_glide_evdw>
-28.0754

> <r_i_glide_ecoul>
-9.28113

> <r_i_glide_erotb>
0.570583

> <r_i_glide_esite>
-0.440946

> <r_i_glide_emodel>
-50.9072

> <r_i_glide_energy>
-37.3566

> <r_i_glide_einternal>
4.80164

> <i_i_glide_confnum>
1

> <i_i_glide_posenum>
562

$$$$
C00103
                    3D
 Structure written by MMmdl.
 27 27  0  0  1  0            999 V2000
    2.6213    3.1826    2.7224 C   0  0  1  0  0  0
    2.5675    1.9510    3.4356 O   0  0  0  0  0  0
    3.7634    2.9911    1.7005 C   0  0  1  0  0  0
    1.3608    3.4788    2.1249 O   0  0  0  0  0  0
    2.0920    0.8492    2.6565 C   0  0  1  0  0  0
    3.3811    1.9020    0.6865 C   0  0  2  0  0  0
    4.1460    4.2118    1.1015 O   0  0  0  0  0  0
    0.1203    4.3175    3.1134 P   0  0  0  0  0  0
    3.0385    0.6003    1.4482 C   0  0  2  0  0  0
    2.0080   -0.3419    3.6314 C   0  0  0  0  0  0
    4.4910    1.6443   -0.1562 O   0  0  0  0  0  0
   -1.0468    4.4965    2.1181 O   0  0  0  0  0  0
    2.4183   -0.2892    0.5385 O   0  0  0  0  0  0
    1.0706   -0.1137    4.6637 O   0  0  0  0  0  0
    2.8889    3.9533    3.4450 H   0  0  0  0  0  0
    4.6455    2.6571    2.2492 H   0  0  0  0  0  0
    1.0854    1.0830    2.3051 H   0  0  0  0  0  0
    2.5346    2.2396    0.0857 H   0  0  0  0  0  0
    4.1096    4.0940    0.1552 H   0  0  0  0  0  0
    3.9600    0.1457    1.8157 H   0  0  0  0  0  0
    1.7649   -1.2651    3.1046 H   0  0  0  0  0  0
    2.9775   -0.4951    4.1066 H   0  0  0  0  0  0
    4.3077    0.8677   -0.6612 H   0  0  0  0  0  0
    2.9881   -0.4016   -0.2059 H   0  0  0  0  0  0
    1.2372   -0.7265    5.3631 H   0  0  0  0  0  0
   -0.1110    3.2997    4.2528 O   0  5  0  0  0  0
    0.8686    5.6083    3.5106 O   0  5  0  0  0  0
  1  2  1  0  0  0
  1  3  1  0  0  0
  1  4  1  0  0  0
  1 15  1  0  0  0
  2  5  1  0  0  0
  3  6  1  0  0  0
  3  7  1  0  0  0
  3 16  1  0  0  0
  4  8  1  0  0  0
  5  9  1  0  0  0
  5 10  1  0  0  0
  5 17  1  0  0  0
  6 11  1  0  0  0
  6  9  1  0  0  0
  6 18  1  0  0  0
  7 19  1  0  0  0
  8 12  2  0  0  0
  8 26  1  0  0  0
  8 27  1  0  0  0
  9 13  1  0  0  0
  9 20  1  0  0  0
 10 14  1  0  0  0
 10 21  1  0  0  0
 10 22  1  0  0  0
 11 23  1  0  0  0
 13 24  1  0  0  0
 14 25  1  0  0  0
M  CHG  2  26  -1  27  -1
M  END
> <i_ionizer_Ion_state_n>
3

> <i_ionizer_Tot_Q>
-2

> <s_ionizer_Ion_centers>
26_27

> <s_ionizer_Ion_types>
OM_OM

> <s_ionizer_Ion_ctrs_in>
12_13

> <r_ionizer_Ionization_penalty>
1.49178e-05

> <r_ionizer_Ionization_penalty_charging>
1.49178e-05

> <r_ionizer_Ionization_penalty_neutral>
0

> <s_st_Chirality_1>
3_R_7_1_6_16

> <s_st_Chirality_2>
5_R_2_9_10_17

> <s_st_Chirality_3>
6_S_11_3_9_18

> <s_st_Chirality_4>
9_R_13_6_5_20

> <s_st_Chirality_5>
1_R_4_2_3_15

> <i_mmod_Serial_Number-OPLS-2005>
73

> <i_i_glide_lignum>
72

> <r_i_docking_score>
-6.31839

> <r_i_glide_gscore>
-6.31839

> <r_i_glide_lipo>
-0.418215

> <r_i_glide_hbond>
-1.65396

> <r_i_glide_metal>
0

> <r_i_glide_eburp>
-1.8324

> <r_i_glide_evdw>
-15.306

> <r_i_glide_ecoul>
-13.6318

> <r_i_glide_erotb>
0.6058

> <r_i_glide_esite>
-0.431946

> <r_i_glide_emodel>
-59.9836

> <r_i_glide_energy>
-28.9378

> <r_i_glide_einternal>
5.71514

> <i_i_glide_confnum>
3

> <i_i_glide_posenum>
537

$$$$
C00385
                    3D
 Structure written by MMmdl.
 15 16  0  0  1  0            999 V2000
    3.4132    2.5015    3.2392 C   0  0  0  0  0  0
    4.4383    2.4297    4.1233 C   0  0  0  0  0  0
    2.7699    1.2924    2.8892 N   0  0  0  0  0  0
    3.1812    3.8107    2.8280 N   0  0  0  0  0  0
    4.9040    1.1806    4.7236 C   0  0  0  0  0  0
    4.8929    3.7211    4.2993 N   0  0  0  0  0  0
    3.1539    0.0938    3.4117 C   0  0  0  0  0  0
    4.1136    4.4864    3.5111 C   0  0  0  0  0  0
    4.1983    0.1001    4.2995 N   0  0  0  0  0  0
    5.8354    1.1329    5.5241 O   0  0  0  0  0  0
    2.5873   -0.9503    3.1000 O   0  0  0  0  0  0
    2.0045    1.3296    2.2318 H   0  0  0  0  0  0
    5.6505    4.0245    4.8944 H   0  0  0  0  0  0
    4.2308    5.5575    3.4359 H   0  0  0  0  0  0
    4.4721   -0.7942    4.6785 H   0  0  0  0  0  0
  1  2  2  0  0  0
  1  3  1  0  0  0
  1  4  1  0  0  0
  2  5  1  0  0  0
  2  6  1  0  0  0
  3  7  1  0  0  0
  3 12  1  0  0  0
  4  8  2  0  0  0
  5  9  1  0  0  0
  5 10  2  0  0  0
  6  8  1  0  0  0
  6 13  1  0  0  0
  7 11  2  0  0  0
  7  9  1  0  0  0
  8 14  1  0  0  0
  9 15  1  0  0  0
M  END
> <i_ionizer_Ion_state_n>
0

> <i_ionizer_Tot_Q>
0

> <s_ionizer_Ion_centers>


> <s_ionizer_Ion_types>


> <s_ionizer_Ion_ctrs_in>


> <r_ionizer_Ionization_penalty>
0.41068

> <r_ionizer_Ionization_penalty_charging>
0

> <r_ionizer_Ionization_penalty_neutral>
0.41068

> <i_mmod_Serial_Number-OPLS-2005>
217

> <i_i_glide_lignum>
215

> <r_i_docking_score>
-6.3165

> <r_i_glide_gscore>
-6.3165

> <r_i_glide_lipo>
-0.213438

> <r_i_glide_hbond>
-0.45

> <r_i_glide_metal>
0

> <r_i_glide_eburp>
-2.5

> <r_i_glide_evdw>
-23.6894

> <r_i_glide_ecoul>
-4.63069

> <r_i_glide_erotb>
0

> <r_i_glide_esite>
-0.794839

> <r_i_glide_emodel>
-36.9303

> <r_i_glide_energy>
-28.3201

> <r_i_glide_einternal>
0

> <i_i_glide_confnum>
1

> <i_i_glide_posenum>
105

$$$$
C00018
                    3D
 Structure written by MMmdl.
 24 24  0  0  1  0            999 V2000
    2.6597    2.8052    3.0079 C   0  0  0  0  0  0
    2.5216    1.3906    3.0823 C   0  0  0  0  0  0
    3.7794    3.4019    3.6264 C   0  0  0  0  0  0
    1.6382    3.6943    2.3002 C   0  0  0  0  0  0
    3.5331    0.6607    3.7700 C   0  0  0  0  0  0
    1.3409    0.7160    2.4589 C   0  0  0  0  0  0
    4.7326    2.7119    4.2819 N   0  0  0  0  0  0
    1.0179    4.6493    3.1444 O   0  0  0  0  0  0
    4.6112    1.3723    4.3449 C   0  0  0  0  0  0
    3.4949   -0.7021    3.8999 O   0  0  0  0  0  0
    1.1106   -0.4929    2.4695 O   0  0  0  0  0  0
   -0.5101    5.3636    2.5324 P   0  0  0  0  0  0
    5.7197    0.6519    5.0905 C   0  0  0  0  0  0
   -0.1517    5.7468    1.0788 O   0  0  0  0  0  0
    3.9205    4.4722    3.6016 H   0  0  0  0  0  0
    2.1040    4.1974    1.4527 H   0  0  0  0  0  0
    0.8561    3.0531    1.8918 H   0  0  0  0  0  0
    0.6393    1.3864    1.9660 H   0  0  0  0  0  0
    4.0998   -1.0349    4.5448 H   0  0  0  0  0  0
    6.4701    1.3499    5.4641 H   0  0  0  0  0  0
    5.3121    0.1079    5.9428 H   0  0  0  0  0  0
    6.2199   -0.0583    4.4317 H   0  0  0  0  0  0
   -1.4995    4.1887    2.6997 O   0  5  0  0  0  0
   -0.7038    6.5470    3.5061 O   0  5  0  0  0  0
  1  2  1  0  0  0
  1  3  2  0  0  0
  1  4  1  0  0  0
  2  5  2  0  0  0
  2  6  1  0  0  0
  3  7  1  0  0  0
  3 15  1  0  0  0
  4  8  1  0  0  0
  4 16  1  0  0  0
  4 17  1  0  0  0
  5  9  1  0  0  0
  5 10  1  0  0  0
  6 11  2  0  0  0
  6 18  1  0  0  0
  7  9  2  0  0  0
  8 12  1  0  0  0
  9 13  1  0  0  0
 10 19  1  0  0  0
 12 14  2  0  0  0
 12 23  1  0  0  0
 12 24  1  0  0  0
 13 20  1  0  0  0
 13 21  1  0  0  0
 13 22  1  0  0  0
M  CHG  2  23  -1  24  -1
M  END
> <i_ionizer_Ion_state_n>
6

> <i_ionizer_Tot_Q>
-2

> <s_ionizer_Ion_centers>
23_24

> <s_ionizer_Ion_types>
OM_OM

> <s_ionizer_Ion_ctrs_in>
14_15

> <r_ionizer_Ionization_penalty>
0.0184608

> <r_ionizer_Ionization_penalty_charging>
1.49178e-05

> <r_ionizer_Ionization_penalty_neutral>
0.0184459

> <i_mmod_Serial_Number-OPLS-2005>
15

> <i_i_glide_lignum>
15

> <r_i_docking_score>
-6.31432

> <r_i_glide_gscore>
-6.31432

> <r_i_glide_lipo>
-0.661762

> <r_i_glide_hbond>
-1.15

> <r_i_glide_metal>
0

> <r_i_glide_eburp>
-1.93083

> <r_i_glide_evdw>
-26.0605

> <r_i_glide_ecoul>
-6.15108

> <r_i_glide_erotb>
0.661926

> <r_i_glide_esite>
-0.533697

> <r_i_glide_emodel>
-64.6187

> <r_i_glide_energy>
-32.2116

> <r_i_glide_einternal>
2.24323

> <i_i_glide_confnum>
2

> <i_i_glide_posenum>
396

$$$$
C03460
                    3D
 Structure written by MMmdl.
 89 91  0  0  1  0            999 V2000
  -14.4311   12.9507    2.7346 N   0  0  0  0  0  0
  -15.2980   12.4982    3.8765 C   0  0  1  0  0  0
  -13.2524   12.3431    2.3606 C   0  0  0  0  0  0
  -14.5999   13.9796    1.8245 C   0  0  0  0  0  0
  -15.2655   10.9794    4.0673 C   0  0  1  0  0  0
  -14.7988   13.0593    5.0528 O   0  0  0  0  0  0
  -12.7777   13.0665    1.2338 C   0  0  0  0  0  0
  -12.6408   11.2653    2.9344 N   0  0  0  0  0  0
  -13.6548   14.0965    0.9302 N   0  0  0  0  0  0
  -14.1223   10.7993    5.0713 C   0  0  1  0  0  0
  -16.5172   10.5084    4.5154 O   0  0  0  0  0  0
  -13.8468   12.1968    5.6732 C   0  0  1  0  0  0
  -11.5595   12.6069    0.6744 C   0  0  0  0  0  0
  -11.5073   10.9491    2.3018 C   0  0  0  0  0  0
  -14.2944    9.6924    5.9611 O   0  0  0  0  0  0
  -12.4323   12.7542    5.4239 C   0  0  0  0  0  0
  -10.9487   11.5394    1.2396 N   0  0  0  0  0  0
  -10.9837   13.1798   -0.3906 N   0  0  0  0  0  0
  -14.9767    9.9326    7.6142 P   0  0  0  0  0  0
  -11.4812   12.1824    6.2984 O   0  0  0  0  0  0
  -15.0936    8.4962    8.1750 O   0  0  0  0  0  0
  -10.0227   12.9928    6.6320 P   0  0  0  0  0  0
   -9.1784   12.8875    5.1582 O   0  0  0  0  0  0
  -10.3402   14.4198    6.8724 O   0  0  0  0  0  0
   -7.7629   13.5711    4.5081 P   0  0  0  0  0  0
   -6.6251   12.3051    4.5746 O   0  0  0  0  0  0
   -8.0160   13.8690    3.0803 O   0  0  0  0  0  0
   -6.0682   11.8566    5.8008 C   0  0  0  0  0  0
   -5.6306   10.3724    5.7193 C   0  0  0  0  0  0
   -4.6536   10.2137    4.5044 C   0  0  2  0  0  0
   -4.9698    9.9743    7.0606 C   0  0  0  0  0  0
   -6.8884    9.4974    5.5064 C   0  0  0  0  0  0
   -4.1231    8.7885    4.2590 C   0  0  0  0  0  0
   -3.5485   11.0899    4.6292 O   0  0  0  0  0  0
   -3.4782    8.5874    3.1002 N   0  0  0  0  0  0
   -4.2704    7.9022    5.1011 O   0  0  0  0  0  0
   -2.9060    7.3137    2.6862 C   0  0  0  0  0  0
   -1.4316    7.2197    3.1153 C   0  0  0  0  0  0
   -0.7565    5.9223    2.6596 C   0  0  0  0  0  0
    0.5131    6.0285    2.2425 N   0  0  0  0  0  0
   -1.3691    4.8546    2.6793 O   0  0  0  0  0  0
    1.3238    4.9071    1.7876 C   0  0  0  0  0  0
    2.3043    4.4682    2.8809 C   0  0  0  0  0  0
    3.3318    3.0754    2.3251 S   0  0  0  0  0  0
    4.2679    2.7520    3.8524 C   0  0  0  0  0  0
    4.1263    1.4414    4.5361 C   0  0  0  0  0  0
    5.0084    3.6291    4.2981 O   0  0  0  0  0  0
    5.2328    1.0705    5.5098 C   0  0  0  0  0  0
    3.0771    0.6291    4.3056 C   0  0  0  0  0  0
  -16.2860   12.8886    3.6283 H   0  0  0  0  0  0
  -15.4516   14.6449    1.8240 H   0  0  0  0  0  0
  -15.0717   10.4713    3.1229 H   0  0  0  0  0  0
  -13.2487   10.5380    4.4794 H   0  0  0  0  0  0
  -17.1458   10.6668    3.8130 H   0  0  0  0  0  0
  -14.0275   12.2294    6.7448 H   0  0  0  0  0  0
  -10.9701   10.1022    2.7025 H   0  0  0  0  0  0
  -12.1090   12.5782    4.4006 H   0  0  0  0  0  0
  -12.4345   13.8349    5.5680 H   0  0  0  0  0  0
  -10.1169   12.8124   -0.7537 H   0  0  0  0  0  0
  -11.4334   13.9681   -0.8343 H   0  0  0  0  0  0
   -5.2210   12.4856    6.0758 H   0  0  0  0  0  0
   -6.8099   12.0004    6.5859 H   0  0  0  0  0  0
   -5.1838   10.5276    3.6034 H   0  0  0  0  0  0
   -4.6886    8.9223    7.0848 H   0  0  0  0  0  0
   -4.0729   10.5623    7.2579 H   0  0  0  0  0  0
   -5.6483   10.1384    7.8981 H   0  0  0  0  0  0
   -6.6515    8.4337    5.4834 H   0  0  0  0  0  0
   -7.6120    9.6352    6.3101 H   0  0  0  0  0  0
   -7.3897    9.7461    4.5706 H   0  0  0  0  0  0
   -3.1145   11.1578    3.7934 H   0  0  0  0  0  0
   -3.3878    9.3659    2.4637 H   0  0  0  0  0  0
   -3.4820    6.4997    3.1303 H   0  0  0  0  0  0
   -2.9950    7.2196    1.6023 H   0  0  0  0  0  0
   -0.8698    8.0606    2.7071 H   0  0  0  0  0  0
   -1.3637    7.2935    4.2019 H   0  0  0  0  0  0
    0.9430    6.9421    2.2413 H   0  0  0  0  0  0
    0.6714    4.0758    1.5149 H   0  0  0  0  0  0
    1.8706    5.1972    0.8889 H   0  0  0  0  0  0
    2.9526    5.3014    3.1557 H   0  0  0  0  0  0
    1.7551    4.1705    3.7752 H   0  0  0  0  0  0
    5.0496    0.0967    5.9651 H   0  0  0  0  0  0
    6.1952    1.0254    4.9985 H   0  0  0  0  0  0
    5.3020    1.8072    6.3111 H   0  0  0  0  0  0
    2.9994   -0.3190    4.8172 H   0  0  0  0  0  0
    2.2795    0.8702    3.6194 H   0  0  0  0  0  0
  -16.3114   10.6469    7.3096 O   0  5  0  0  0  0
  -13.8864   10.8068    8.2711 O   0  5  0  0  0  0
   -9.2878   12.2285    7.6652 O   0  5  0  0  0  0
   -7.3101   14.6622    5.4022 O   0  5  0  0  0  0
  1  2  1  0  0  0
  1  3  1  0  0  0
  1  4  1  0  0  0
  2  5  1  0  0  0
  2  6  1  0  0  0
  2 50  1  0  0  0
  3  7  2  0  0  0
  3  8  1  0  0  0
  4  9  2  0  0  0
  4 51  1  0  0  0
  5 10  1  0  0  0
  5 11  1  0  0  0
  5 52  1  0  0  0
  6 12  1  0  0  0
  7 13  1  0  0  0
  7  9  1  0  0  0
  8 14  2  0  0  0
 10 15  1  0  0  0
 10 12  1  0  0  0
 10 53  1  0  0  0
 11 54  1  0  0  0
 12 16  1  0  0  0
 12 55  1  0  0  0
 13 17  2  0  0  0
 13 18  1  0  0  0
 14 17  1  0  0  0
 14 56  1  0  0  0
 15 19  1  0  0  0
 16 20  1  0  0  0
 16 57  1  0  0  0
 16 58  1  0  0  0
 18 59  1  0  0  0
 18 60  1  0  0  0
 19 21  2  0  0  0
 19 86  1  0  0  0
 19 87  1  0  0  0
 20 22  1  0  0  0
 22 23  1  0  0  0
 22 24  2  0  0  0
 22 88  1  0  0  0
 23 25  1  0  0  0
 25 26  1  0  0  0
 25 27  2  0  0  0
 25 89  1  0  0  0
 26 28  1  0  0  0
 28 29  1  0  0  0
 28 61  1  0  0  0
 28 62  1  0  0  0
 29 30  1  0  0  0
 29 31  1  0  0  0
 29 32  1  0  0  0
 30 33  1  0  0  0
 30 34  1  0  0  0
 30 63  1  0  0  0
 31 64  1  0  0  0
 31 65  1  0  0  0
 31 66  1  0  0  0
 32 67  1  0  0  0
 32 68  1  0  0  0
 32 69  1  0  0  0
 33 35  1  0  0  0
 33 36  2  0  0  0
 34 70  1  0  0  0
 35 37  1  0  0  0
 35 71  1  0  0  0
 37 38  1  0  0  0
 37 72  1  0  0  0
 37 73  1  0  0  0
 38 39  1  0  0  0
 38 74  1  0  0  0
 38 75  1  0  0  0
 39 40  1  0  0  0
 39 41  2  0  0  0
 40 42  1  0  0  0
 40 76  1  0  0  0
 42 43  1  0  0  0
 42 77  1  0  0  0
 42 78  1  0  0  0
 43 44  1  0  0  0
 43 79  1  0  0  0
 43 80  1  0  0  0
 44 45  1  0  0  0
 45 46  1  0  0  0
 45 47  2  0  0  0
 46 48  1  0  0  0
 46 49  2  0  0  0
 48 81  1  0  0  0
 48 82  1  0  0  0
 48 83  1  0  0  0
 49 84  1  0  0  0
 49 85  1  0  0  0
M  CHG  4  86  -1  87  -1  88  -1  89  -1
M  END
> <i_ionizer_Ion_state_n>
30

> <i_ionizer_Tot_Q>
-4

> <s_ionizer_Ion_centers>
86_87_88_89

> <s_ionizer_Ion_types>
OM_OM_OM_OM

> <s_ionizer_Ion_ctrs_in>
21_22_26_30

> <r_ionizer_Ionization_penalty>
4.85714e-05

> <r_ionizer_Ionization_penalty_charging>
2.98356e-05

> <r_ionizer_Ionization_penalty_neutral>
1.87357e-05

> <s_st_Chirality_1>
2_R_6_1_5_50

> <s_st_Chirality_2>
5_R_11_2_10_52

> <s_st_Chirality_3>
10_R_15_5_12_53

> <s_st_Chirality_4>
12_R_6_10_16_55

> <s_st_Chirality_5>
30_R_34_33_29_63

> <i_mmod_Serial_Number-OPLS-2005>
547

> <i_i_glide_lignum>
541

> <r_i_docking_score>
-6.31157

> <r_i_glide_gscore>
-6.31157

> <r_i_glide_lipo>
-1.06167

> <r_i_glide_hbond>
-1.58924

> <r_i_glide_metal>
0

> <r_i_glide_eburp>
1.11022e-16

> <r_i_glide_evdw>
-41.4463

> <r_i_glide_ecoul>
-7.84314

> <r_i_glide_erotb>
0.555457

> <r_i_glide_esite>
-0.1161

> <r_i_glide_emodel>
-99.855

> <r_i_glide_energy>
-49.2895

> <r_i_glide_einternal>
16.7489

> <i_i_glide_confnum>
1149

> <i_i_glide_posenum>
438

$$$$
C04352
                    3D
 Structure written by MMmdl.
 45 44  0  0  1  0            999 V2000
    3.5492    1.0544    2.7963 C   0  0  2  0  0  0
    3.7859   -0.1412    1.8114 C   0  0  0  0  0  0
    4.1167    2.4107    2.3358 C   0  0  0  0  0  0
    4.0689    0.7624    4.0822 O   0  0  0  0  0  0
    5.3115   -0.2990    1.5827 C   0  0  0  0  0  0
    3.2430   -1.4492    2.4330 C   0  0  0  0  0  0
    3.0942    0.0804    0.4458 C   0  0  0  0  0  0
    3.8358    3.4685    3.1113 N   0  0  0  0  0  0
    4.8152    2.4925    1.3246 O   0  0  0  0  0  0
    5.5873   -1.1405    0.4730 O   0  0  0  0  0  0
    4.2012    4.8421    2.7928 C   0  0  0  0  0  0
    7.2159   -0.9495   -0.2495 P   0  0  0  0  0  0
    3.1331    5.4934    1.8973 C   0  0  0  0  0  0
    7.1076   -1.8369   -1.5099 O   0  0  0  0  0  0
    1.7088    5.2951    2.4254 C   0  0  0  0  0  0
    0.7539    6.0254    1.8234 N   0  0  0  0  0  0
    1.4949    4.5131    3.3512 O   0  0  0  0  0  0
   -0.6624    6.1508    2.1827 C   0  0  2  0  0  0
   -1.2683    4.7808    2.5214 C   0  0  0  0  0  0
   -1.4798    7.0348    1.2074 C   0  0  0  0  0  0
   -0.6806    4.0982    3.3895 O   0  0  0  0  0  0
   -3.0948    7.4697    1.9164 S   0  0  0  0  0  0
    2.4726    1.1751    2.9297 H   0  0  0  0  0  0
    3.7662   -0.0949    4.3389 H   0  0  0  0  0  0
    5.7775    0.6659    1.3824 H   0  0  0  0  0  0
    5.7878   -0.6832    2.4859 H   0  0  0  0  0  0
    3.4537   -2.3102    1.7979 H   0  0  0  0  0  0
    3.6976   -1.6442    3.4048 H   0  0  0  0  0  0
    2.1623   -1.4223    2.5721 H   0  0  0  0  0  0
    3.3136   -0.7360   -0.2429 H   0  0  0  0  0  0
    2.0098    0.1302    0.5377 H   0  0  0  0  0  0
    3.4299    1.0018   -0.0303 H   0  0  0  0  0  0
    3.3295    3.3109    3.9706 H   0  0  0  0  0  0
    4.3130    5.4082    3.7195 H   0  0  0  0  0  0
    5.1715    4.8453    2.2928 H   0  0  0  0  0  0
    3.3211    6.5640    1.8087 H   0  0  0  0  0  0
    3.1999    5.0777    0.8905 H   0  0  0  0  0  0
    1.0419    6.5779    1.0294 H   0  0  0  0  0  0
   -0.6327    6.7006    3.1248 H   0  0  0  0  0  0
   -0.9471    7.9625    0.9964 H   0  0  0  0  0  0
   -1.6446    6.5329    0.2536 H   0  0  0  0  0  0
   -3.1578    8.6912    1.3793 H   0  0  0  0  0  0
    7.2892    0.5737   -0.4993 O   0  5  0  0  0  0
    8.1193   -1.4905    0.8804 O   0  5  0  0  0  0
   -2.2943    4.4304    1.8977 O   0  5  0  0  0  0
  1  2  1  0  0  0
  1  3  1  0  0  0
  1  4  1  0  0  0
  1 23  1  0  0  0
  2  5  1  0  0  0
  2  6  1  0  0  0
  2  7  1  0  0  0
  3  8  1  0  0  0
  3  9  2  0  0  0
  4 24  1  0  0  0
  5 10  1  0  0  0
  5 25  1  0  0  0
  5 26  1  0  0  0
  6 27  1  0  0  0
  6 28  1  0  0  0
  6 29  1  0  0  0
  7 30  1  0  0  0
  7 31  1  0  0  0
  7 32  1  0  0  0
  8 11  1  0  0  0
  8 33  1  0  0  0
 10 12  1  0  0  0
 11 13  1  0  0  0
 11 34  1  0  0  0
 11 35  1  0  0  0
 12 14  2  0  0  0
 12 43  1  0  0  0
 12 44  1  0  0  0
 13 15  1  0  0  0
 13 36  1  0  0  0
 13 37  1  0  0  0
 15 16  1  0  0  0
 15 17  2  0  0  0
 16 18  1  0  0  0
 16 38  1  0  0  0
 18 19  1  0  0  0
 18 20  1  0  0  0
 18 39  1  0  0  0
 19 21  2  0  0  0
 19 45  1  0  0  0
 20 22  1  0  0  0
 20 40  1  0  0  0
 20 41  1  0  0  0
 22 42  1  0  0  0
M  CHG  3  43  -1  44  -1  45  -1
M  END
> <i_ionizer_Ion_state_n>
7

> <i_ionizer_Tot_Q>
-3

> <s_ionizer_Ion_centers>
43_44_45

> <s_ionizer_Ion_types>
OM_OM_OM

> <s_ionizer_Ion_ctrs_in>
14_15_23

> <r_ionizer_Ionization_penalty>
0.00247776

> <r_ionizer_Ionization_penalty_charging>
0.000607108

> <r_ionizer_Ionization_penalty_neutral>
0.00187065

> <s_st_Chirality_1>
1_R_4_3_2_23

> <s_st_Chirality_2>
18_R_16_20_19_39

> <i_mmod_Serial_Number-OPLS-2005>
590

> <i_i_glide_lignum>
584

> <r_i_docking_score>
-6.31117

> <r_i_glide_gscore>
-6.31117

> <r_i_glide_lipo>
-0.769128

> <r_i_glide_hbond>
-2.36151

> <r_i_glide_metal>
0

> <r_i_glide_eburp>
-1.16258

> <r_i_glide_evdw>
-27.1032

> <r_i_glide_ecoul>
-11.0258

> <r_i_glide_erotb>
1.54459

> <r_i_glide_esite>
-0.291697

> <r_i_glide_emodel>
-85.9358

> <r_i_glide_energy>
-38.129

> <r_i_glide_einternal>
7.17338

> <i_i_glide_confnum>
97

> <i_i_glide_posenum>
521

$$$$
C05130
                    3D
 Structure written by MMmdl.
 14 14  0  0  1  0            999 V2000
    1.9410    1.2808    3.2336 C   0  0  0  0  0  0
    1.6992    2.4459    2.3208 C   0  0  0  0  0  0
    3.1220    0.8723    3.8167 C   0  0  0  0  0  0
    0.9003    0.4340    3.6267 N   0  0  0  0  0  0
    1.0583    3.5489    3.1612 C   0  0  0  0  0  0
    2.7973   -0.2433    4.5693 N   0  0  0  0  0  0
    1.4864   -0.4530    4.4218 C   0  0  0  0  0  0
    0.1019    3.2992    3.8919 O   0  0  0  0  0  0
    2.6306    2.8112    1.8878 H   0  0  0  0  0  0
    1.0342    2.1739    1.5010 H   0  0  0  0  0  0
    4.1259    1.2671    3.7601 H   0  0  0  0  0  0
    1.4884    4.5470    3.0675 H   0  0  0  0  0  0
    3.4312   -0.7955    5.1291 H   0  0  0  0  0  0
    0.9556   -1.2618    4.9022 H   0  0  0  0  0  0
  1  2  1  0  0  0
  1  3  2  0  0  0
  1  4  1  0  0  0
  2  5  1  0  0  0
  2  9  1  0  0  0
  2 10  1  0  0  0
  3  6  1  0  0  0
  3 11  1  0  0  0
  4  7  2  0  0  0
  5  8  2  0  0  0
  5 12  1  0  0  0
  6  7  1  0  0  0
  6 13  1  0  0  0
  7 14  1  0  0  0
M  END
> <i_ionizer_Ion_state_n>
0

> <i_ionizer_Tot_Q>
0

> <s_ionizer_Ion_centers>


> <s_ionizer_Ion_types>


> <s_ionizer_Ion_ctrs_in>


> <r_ionizer_Ionization_penalty>
0.41068

> <r_ionizer_Ionization_penalty_charging>
0

> <r_ionizer_Ionization_penalty_neutral>
0.41068

> <i_mmod_Serial_Number-OPLS-2005>
631

> <i_i_glide_lignum>
624

> <r_i_docking_score>
-6.31071

> <r_i_glide_gscore>
-6.31071

> <r_i_glide_lipo>
-0.240058

> <r_i_glide_hbond>
-0.95

> <r_i_glide_metal>
0

> <r_i_glide_eburp>
-2.5

> <r_i_glide_evdw>
-15.7252

> <r_i_glide_ecoul>
-7.68481

> <r_i_glide_erotb>
0

> <r_i_glide_esite>
-0.594152

> <r_i_glide_emodel>
-31.5627

> <r_i_glide_energy>
-23.41

> <r_i_glide_einternal>
1.29536

> <i_i_glide_confnum>
1

> <i_i_glide_posenum>
785

$$$$
C00655
                    3D
 Structure written by MMmdl.
 35 37  0  0  1  0            999 V2000
    1.0723    5.2917    1.7984 C   0  0  0  0  0  0
    1.8576    4.4216    2.5383 N   0  0  0  0  0  0
   -0.2102    5.1728    2.2295 C   0  0  0  0  0  0
    1.4793    6.1282    0.8204 N   0  0  0  0  0  0
    3.3328    4.2069    2.4243 C   0  0  2  0  0  0
    0.9772    3.8329    3.3766 C   0  0  0  0  0  0
   -0.2917    4.2329    3.2508 N   0  0  0  0  0  0
   -1.2373    6.0232    1.5723 C   0  0  0  0  0  0
    0.5754    6.9264    0.1923 C   0  0  0  0  0  0
    3.5430    3.0263    1.7045 O   0  0  0  0  0  0
    3.9226    4.0061    3.8229 C   0  0  1  0  0  0
   -0.7301    6.8314    0.5993 N   0  0  0  0  0  0
   -2.4282    6.0012    1.8757 O   0  0  0  0  0  0
    0.9136    7.6986   -0.7005 O   0  0  0  0  0  0
    4.1297    2.0185    2.5292 C   0  0  1  0  0  0
    3.8834    2.4929    3.9635 C   0  0  1  0  0  0
    5.2342    4.5295    3.8990 O   0  0  0  0  0  0
    3.5370    0.6475    2.1619 C   0  0  0  0  0  0
    4.8396    2.0244    4.8931 O   0  0  0  0  0  0
    2.1768    0.7706    1.7807 O   0  0  0  0  0  0
    1.0014   -0.1318    2.7864 P   0  0  0  0  0  0
   -0.2613   -0.1143    1.8970 O   0  0  0  0  0  0
    2.4561    6.1565    0.5647 H   0  0  0  0  0  0
    3.6991    5.0866    1.8938 H   0  0  0  0  0  0
    1.2720    3.0899    4.1029 H   0  0  0  0  0  0
    3.3174    4.5002    4.5847 H   0  0  0  0  0  0
   -1.3909    7.4284    0.1249 H   0  0  0  0  0  0
    5.1987    2.0320    2.3098 H   0  0  0  0  0  0
    2.8884    2.1882    4.2910 H   0  0  0  0  0  0
    5.1787    5.4538    3.7030 H   0  0  0  0  0  0
    4.1411    0.1481    1.4039 H   0  0  0  0  0  0
    3.5520    0.0007    3.0390 H   0  0  0  0  0  0
    4.8551    1.0720    4.8198 H   0  0  0  0  0  0
    1.6998   -1.5005    2.9464 O   0  5  0  0  0  0
    0.9421    0.7488    4.0532 O   0  5  0  0  0  0
  1  2  1  0  0  0
  1  3  2  0  0  0
  1  4  1  0  0  0
  2  5  1  0  0  0
  2  6  1  0  0  0
  3  7  1  0  0  0
  3  8  1  0  0  0
  4  9  1  0  0  0
  4 23  1  0  0  0
  5 10  1  0  0  0
  5 11  1  0  0  0
  5 24  1  0  0  0
  6  7  2  0  0  0
  6 25  1  0  0  0
  8 12  1  0  0  0
  8 13  2  0  0  0
  9 14  2  0  0  0
  9 12  1  0  0  0
 10 15  1  0  0  0
 11 16  1  0  0  0
 11 17  1  0  0  0
 11 26  1  0  0  0
 12 27  1  0  0  0
 15 18  1  0  0  0
 15 16  1  0  0  0
 15 28  1  0  0  0
 16 19  1  0  0  0
 16 29  1  0  0  0
 17 30  1  0  0  0
 18 20  1  0  0  0
 18 31  1  0  0  0
 18 32  1  0  0  0
 19 33  1  0  0  0
 20 21  1  0  0  0
 21 22  2  0  0  0
 21 34  1  0  0  0
 21 35  1  0  0  0
M  CHG  2  34  -1  35  -1
M  END
> <i_ionizer_Ion_state_n>
6

> <i_ionizer_Tot_Q>
-2

> <s_ionizer_Ion_centers>
34_35

> <s_ionizer_Ion_types>
OM_OM

> <s_ionizer_Ion_ctrs_in>
22_23

> <r_ionizer_Ionization_penalty>
0.410695

> <r_ionizer_Ionization_penalty_charging>
1.49178e-05

> <r_ionizer_Ionization_penalty_neutral>
0.41068

> <s_st_Chirality_1>
5_R_10_2_11_24

> <s_st_Chirality_2>
11_R_17_5_16_26

> <s_st_Chirality_3>
15_R_10_16_18_28

> <s_st_Chirality_4>
16_R_19_11_15_29

> <i_mmod_Serial_Number-OPLS-2005>
309

> <i_i_glide_lignum>
307

> <r_i_docking_score>
-6.30737

> <r_i_glide_gscore>
-6.30737

> <r_i_glide_lipo>
-0.537129

> <r_i_glide_hbond>
-1.011

> <r_i_glide_metal>
0

> <r_i_glide_eburp>
-1.04398

> <r_i_glide_evdw>
-36.5302

> <r_i_glide_ecoul>
-10.214

> <r_i_glide_erotb>
0.50178

> <r_i_glide_esite>
-0.273223

> <r_i_glide_emodel>
-85.4867

> <r_i_glide_energy>
-46.7442

> <r_i_glide_einternal>
7.25294

> <i_i_glide_confnum>
5

> <i_i_glide_posenum>
568

$$$$
C05831
                    3D
 Structure written by MMmdl.
 20 20  0  0  1  0            999 V2000
    1.5324    2.6447    2.7983 C   0  0  0  0  0  0
    2.5951    2.6562    1.8407 C   0  0  0  0  0  0
    1.2979    1.4503    3.5206 C   0  0  0  0  0  0
    0.6386    3.8387    3.0827 C   0  0  0  0  0  0
    3.3814    1.4974    1.6150 C   0  0  0  0  0  0
    2.8992    3.7526    1.1227 N   0  0  0  0  0  0
    2.0762    0.3022    3.3035 C   0  0  0  0  0  0
    0.8342    4.9325    2.5055 O   0  0  0  0  0  0
    3.1107    0.3217    2.3558 C   0  0  0  0  0  0
    4.3876    1.5776    0.6699 O   0  0  0  0  0  0
    5.0995    0.3954    0.3342 C   0  0  0  0  0  0
    0.5066    1.3975    4.2542 H   0  0  0  0  0  0
    3.5037    3.6822    0.3174 H   0  0  0  0  0  0
    2.2617    4.5401    1.1552 H   0  0  0  0  0  0
    1.8762   -0.5981    3.8656 H   0  0  0  0  0  0
    3.6839   -0.5820    2.2177 H   0  0  0  0  0  0
    5.8522    0.6314   -0.4179 H   0  0  0  0  0  0
    5.6184   -0.0176    1.2003 H   0  0  0  0  0  0
    4.4384   -0.3622   -0.0886 H   0  0  0  0  0  0
   -0.3011    3.6989    3.8980 O   0  5  0  0  0  0
  1  2  1  0  0  0
  1  3  2  0  0  0
  1  4  1  0  0  0
  2  5  2  0  0  0
  2  6  1  0  0  0
  3  7  1  0  0  0
  3 12  1  0  0  0
  4  8  2  0  0  0
  4 20  1  0  0  0
  5  9  1  0  0  0
  5 10  1  0  0  0
  6 13  1  0  0  0
  6 14  1  0  0  0
  7  9  2  0  0  0
  7 15  1  0  0  0
  9 16  1  0  0  0
 10 11  1  0  0  0
 11 17  1  0  0  0
 11 18  1  0  0  0
 11 19  1  0  0  0
M  CHG  1  20  -1
M  END
> <i_ionizer_Ion_state_n>
2

> <i_ionizer_Tot_Q>
-1

> <s_ionizer_Ion_centers>
20

> <s_ionizer_Ion_types>
OM

> <s_ionizer_Ion_ctrs_in>
8

> <r_ionizer_Ionization_penalty>
0.00246284

> <r_ionizer_Ionization_penalty_charging>
0.00059219

> <r_ionizer_Ionization_penalty_neutral>
0.00187065

> <i_mmod_Serial_Number-OPLS-2005>
805

> <i_i_glide_lignum>
796

> <r_i_docking_score>
-6.29728

> <r_i_glide_gscore>
-6.29728

> <r_i_glide_lipo>
-0.60184

> <r_i_glide_hbond>
-0.808585

> <r_i_glide_metal>
0

> <r_i_glide_eburp>
-2.5

> <r_i_glide_evdw>
-17.8665

> <r_i_glide_ecoul>
-5.51168

> <r_i_glide_erotb>
0

> <r_i_glide_esite>
-0.406368

> <r_i_glide_emodel>
-47.3075

> <r_i_glide_energy>
-23.3782

> <r_i_glide_einternal>
0.0637125

> <i_i_glide_confnum>
1

> <i_i_glide_posenum>
162

$$$$
C01033
                    3D
 Structure written by MMmdl.
 94 96  0  0  1  0            999 V2000
   -9.7837    8.5239   12.3591 N   0  0  0  0  0  0
  -11.0070    8.3985   11.5053 C   0  0  1  0  0  0
   -8.5980    9.1054   11.9689 C   0  0  0  0  0  0
   -9.5691    8.1204   13.6620 C   0  0  0  0  0  0
  -12.1908    9.1116   12.1755 C   0  0  1  0  0  0
  -10.7655    9.0546   10.2901 O   0  0  0  0  0  0
   -7.7170    8.9741   13.0760 C   0  0  0  0  0  0
   -8.2934    9.6782   10.7677 N   0  0  0  0  0  0
   -8.3728    8.3575   14.1319 N   0  0  0  0  0  0
  -12.8364    9.8122   10.9960 C   0  0  1  0  0  0
  -13.1455    8.2497   12.7575 O   0  0  0  0  0  0
  -11.6154   10.1960   10.1495 C   0  0  1  0  0  0
   -6.4064    9.4770   12.8826 C   0  0  0  0  0  0
   -7.0283   10.1052   10.7337 C   0  0  0  0  0  0
  -13.6350    8.8473   10.3104 O   0  0  0  0  0  0
  -10.8608   11.4433   10.6447 C   0  0  0  0  0  0
   -6.0964   10.0383   11.6907 N   0  0  0  0  0  0
   -5.4565    9.4205   13.8251 N   0  0  0  0  0  0
  -14.6823    9.4215    8.9706 P   0  0  0  0  0  0
   -9.7419   11.7325    9.8318 O   0  0  0  0  0  0
  -15.8062   10.1856    9.7042 O   0  0  0  0  0  0
   -8.7192   13.0511   10.1739 P   0  0  0  0  0  0
   -7.4587   12.9663    9.0294 O   0  0  0  0  0  0
   -9.4797   14.3004    9.9397 O   0  0  0  0  0  0
   -6.1538   13.9413    8.5305 P   0  0  0  0  0  0
   -5.1348   12.8564    7.6981 O   0  0  0  0  0  0
   -6.6428   14.9431    7.5568 O   0  0  0  0  0  0
   -5.5504   12.1860    6.5207 C   0  0  0  0  0  0
   -4.6596   10.9565    6.1975 C   0  0  0  0  0  0
   -5.3428   10.1356    5.0512 C   0  0  2  0  0  0
   -3.2496   11.4490    5.8019 C   0  0  0  0  0  0
   -4.5284   10.0824    7.4662 C   0  0  0  0  0  0
   -4.6127    8.8430    4.6394 C   0  0  0  0  0  0
   -5.5268   10.9367    3.8972 O   0  0  0  0  0  0
   -3.8990    8.8993    3.5051 N   0  0  0  0  0  0
   -4.6700    7.8326    5.3413 O   0  0  0  0  0  0
   -3.2265    7.7588    2.8982 C   0  0  0  0  0  0
   -1.7522    8.0916    2.6106 C   0  0  0  0  0  0
   -0.9319    6.8704    2.1834 C   0  0  0  0  0  0
    0.2746    7.1222    1.6560 N   0  0  0  0  0  0
   -1.3789    5.7316    2.3225 O   0  0  0  0  0  0
    1.2283    6.0943    1.2624 C   0  0  0  0  0  0
    1.3261    5.0046    2.3400 C   0  0  0  0  0  0
    2.4162    3.6378    1.8370 S   0  0  0  0  0  0
    1.9624    2.3945    3.0805 C   0  0  0  0  0  0
    3.0255    1.3330    3.3950 C   0  0  1  0  0  0
    0.8717    2.3837    3.6495 O   0  0  0  0  0  0
    4.2153    1.9398    4.1704 C   0  0  0  0  0  0
    2.3982    0.1213    4.1093 C   0  0  0  0  0  0
    5.3325    0.9296    4.4644 C   0  0  0  0  0  0
  -11.1479    7.3282   11.3496 H   0  0  0  0  0  0
  -10.3236    7.6323   14.2615 H   0  0  0  0  0  0
  -11.8281    9.8347   12.9057 H   0  0  0  0  0  0
  -13.4408   10.6660   11.3045 H   0  0  0  0  0  0
  -12.6872    7.7744   13.4381 H   0  0  0  0  0  0
  -11.8697   10.3461    9.1018 H   0  0  0  0  0  0
   -6.7155   10.5615    9.8062 H   0  0  0  0  0  0
  -11.5102   12.3127   10.6508 H   0  0  0  0  0  0
  -10.5382   11.2867   11.6741 H   0  0  0  0  0  0
   -4.5362    9.7882   13.6353 H   0  0  0  0  0  0
   -5.6634    8.9869   14.7136 H   0  0  0  0  0  0
   -6.5943   11.8853    6.6205 H   0  0  0  0  0  0
   -5.5209   12.9120    5.7078 H   0  0  0  0  0  0
   -6.3442    9.8574    5.3846 H   0  0  0  0  0  0
   -2.5578   10.6268    5.6229 H   0  0  0  0  0  0
   -3.2712   12.0667    4.9039 H   0  0  0  0  0  0
   -2.8175   12.0521    6.5988 H   0  0  0  0  0  0
   -3.8780    9.2221    7.3089 H   0  0  0  0  0  0
   -4.0975   10.6455    8.2945 H   0  0  0  0  0  0
   -5.4990    9.7082    7.7929 H   0  0  0  0  0  0
   -4.8108   10.7766    3.3022 H   0  0  0  0  0  0
   -3.8283    9.7866    3.0287 H   0  0  0  0  0  0
   -3.2977    6.9017    3.5704 H   0  0  0  0  0  0
   -3.7432    7.4901    1.9749 H   0  0  0  0  0  0
   -1.6862    8.8427    1.8225 H   0  0  0  0  0  0
   -1.2976    8.5286    3.5012 H   0  0  0  0  0  0
    0.5460    8.0846    1.5164 H   0  0  0  0  0  0
    0.9147    5.6527    0.3151 H   0  0  0  0  0  0
    2.2011    6.5576    1.0933 H   0  0  0  0  0  0
    1.6574    5.4172    3.2936 H   0  0  0  0  0  0
    0.3357    4.5835    2.5155 H   0  0  0  0  0  0
    3.3977    0.9877    2.4291 H   0  0  0  0  0  0
    4.6445    2.7648    3.5994 H   0  0  0  0  0  0
    3.8697    2.3717    5.1105 H   0  0  0  0  0  0
    3.0875   -0.7228    4.1290 H   0  0  0  0  0  0
    2.1337    0.3538    5.1414 H   0  0  0  0  0  0
    1.4935   -0.2166    3.6020 H   0  0  0  0  0  0
    6.1649    1.4133    4.9760 H   0  0  0  0  0  0
    4.9820    0.1191    5.1032 H   0  0  0  0  0  0
    5.7198    0.4904    3.5447 H   0  0  0  0  0  0
  -13.6964   10.2815    8.1493 O   0  5  0  0  0  0
  -15.0981    8.0826    8.3224 O   0  5  0  0  0  0
   -8.1193   12.8175   11.5074 O   0  5  0  0  0  0
   -5.4446   14.3990    9.7479 O   0  5  0  0  0  0
  1  2  1  0  0  0
  1  3  1  0  0  0
  1  4  1  0  0  0
  2  5  1  0  0  0
  2  6  1  0  0  0
  2 51  1  0  0  0
  3  7  2  0  0  0
  3  8  1  0  0  0
  4  9  2  0  0  0
  4 52  1  0  0  0
  5 10  1  0  0  0
  5 11  1  0  0  0
  5 53  1  0  0  0
  6 12  1  0  0  0
  7 13  1  0  0  0
  7  9  1  0  0  0
  8 14  2  0  0  0
 10 15  1  0  0  0
 10 12  1  0  0  0
 10 54  1  0  0  0
 11 55  1  0  0  0
 12 16  1  0  0  0
 12 56  1  0  0  0
 13 17  2  0  0  0
 13 18  1  0  0  0
 14 17  1  0  0  0
 14 57  1  0  0  0
 15 19  1  0  0  0
 16 20  1  0  0  0
 16 58  1  0  0  0
 16 59  1  0  0  0
 18 60  1  0  0  0
 18 61  1  0  0  0
 19 21  2  0  0  0
 19 91  1  0  0  0
 19 92  1  0  0  0
 20 22  1  0  0  0
 22 23  1  0  0  0
 22 24  2  0  0  0
 22 93  1  0  0  0
 23 25  1  0  0  0
 25 26  1  0  0  0
 25 27  2  0  0  0
 25 94  1  0  0  0
 26 28  1  0  0  0
 28 29  1  0  0  0
 28 62  1  0  0  0
 28 63  1  0  0  0
 29 30  1  0  0  0
 29 31  1  0  0  0
 29 32  1  0  0  0
 30 33  1  0  0  0
 30 34  1  0  0  0
 30 64  1  0  0  0
 31 65  1  0  0  0
 31 66  1  0  0  0
 31 67  1  0  0  0
 32 68  1  0  0  0
 32 69  1  0  0  0
 32 70  1  0  0  0
 33 35  1  0  0  0
 33 36  2  0  0  0
 34 71  1  0  0  0
 35 37  1  0  0  0
 35 72  1  0  0  0
 37 38  1  0  0  0
 37 73  1  0  0  0
 37 74  1  0  0  0
 38 39  1  0  0  0
 38 75  1  0  0  0
 38 76  1  0  0  0
 39 40  1  0  0  0
 39 41  2  0  0  0
 40 42  1  0  0  0
 40 77  1  0  0  0
 42 43  1  0  0  0
 42 78  1  0  0  0
 42 79  1  0  0  0
 43 44  1  0  0  0
 43 80  1  0  0  0
 43 81  1  0  0  0
 44 45  1  0  0  0
 45 46  1  0  0  0
 45 47  2  0  0  0
 46 48  1  0  0  0
 46 49  1  0  0  0
 46 82  1  0  0  0
 48 50  1  0  0  0
 48 83  1  0  0  0
 48 84  1  0  0  0
 49 85  1  0  0  0
 49 86  1  0  0  0
 49 87  1  0  0  0
 50 88  1  0  0  0
 50 89  1  0  0  0
 50 90  1  0  0  0
M  CHG  4  91  -1  92  -1  93  -1  94  -1
M  END
> <i_ionizer_Ion_state_n>
30

> <i_ionizer_Tot_Q>
-4

> <s_ionizer_Ion_centers>
91_92_93_94

> <s_ionizer_Ion_types>
OM_OM_OM_OM

> <s_ionizer_Ion_ctrs_in>
21_22_26_30

> <r_ionizer_Ionization_penalty>
4.85714e-05

> <r_ionizer_Ionization_penalty_charging>
2.98356e-05

> <r_ionizer_Ionization_penalty_neutral>
1.87357e-05

> <s_st_Chirality_1>
2_R_6_1_5_51

> <s_st_Chirality_2>
5_R_11_2_10_53

> <s_st_Chirality_3>
10_R_15_5_12_54

> <s_st_Chirality_4>
12_R_6_10_16_56

> <s_st_Chirality_5>
30_R_34_33_29_64

> <s_st_Chirality_6>
46_R_45_48_49_82

> <i_mmod_Serial_Number-OPLS-2005>
376

> <i_i_glide_lignum>
372

> <r_i_docking_score>
-6.29511

> <r_i_glide_gscore>
-6.29511

> <r_i_glide_lipo>
-0.93416

> <r_i_glide_hbond>
-1.75864

> <r_i_glide_metal>
0

> <r_i_glide_eburp>
0

> <r_i_glide_evdw>
-41.7532

> <r_i_glide_ecoul>
-10.9592

> <r_i_glide_erotb>
0.524533

> <r_i_glide_esite>
0.309338

> <r_i_glide_emodel>
-99.8814

> <r_i_glide_energy>
-52.7124

> <r_i_glide_einternal>
17.193

> <i_i_glide_confnum>
1019

> <i_i_glide_posenum>
786

$$$$
C05993
                    3D
 Structure written by MMmdl.
 41 43  0  0  1  0            999 V2000
    1.8805    3.1142    2.3800 N   0  0  0  0  0  0
    1.0895    4.2372    2.2998 C   0  0  0  0  0  0
    1.6014    1.9180    3.2282 C   0  0  2  0  0  0
    2.9345    3.3551    1.5231 C   0  0  0  0  0  0
    1.7354    5.1014    1.3749 C   0  0  0  0  0  0
   -0.0793    4.4924    2.9565 N   0  0  0  0  0  0
    2.6774    1.7568    4.1425 O   0  0  0  0  0  0
    1.6283    0.6760    2.3454 C   0  0  1  0  0  0
    2.8998    4.5067    0.9059 N   0  0  0  0  0  0
    1.0851    6.3372    1.1322 C   0  0  0  0  0  0
   -0.5731    5.6898    2.6277 C   0  0  0  0  0  0
    3.1410    0.4178    4.1677 C   0  0  1  0  0  0
    2.2082   -0.3878    3.2509 C   0  0  1  0  0  0
    0.3306    0.3276    1.9022 O   0  0  0  0  0  0
   -0.0740    6.5972    1.7810 N   0  0  0  0  0  0
    1.5627    7.2621    0.2892 N   0  0  0  0  0  0
    4.6071    0.3303    3.7087 C   0  0  0  0  0  0
    1.2166   -1.1004    3.9660 O   0  0  0  0  0  0
    4.8766    1.1230    2.5657 O   0  0  0  0  0  0
    4.8546    0.4819    0.9868 P   0  0  0  0  0  0
    6.3058   -0.4022    0.8677 O   0  0  0  0  0  0
    3.7415   -0.4923    0.9138 O   0  0  0  0  0  0
    6.6934   -1.0252   -0.2500 C   0  0  0  0  0  0
    8.1066   -0.6374   -0.6617 C   0  0  0  0  0  0
    6.0249   -1.8145   -0.9164 O   0  0  0  0  0  0
    0.6323    2.1217    3.6852 H   0  0  0  0  0  0
    3.7361    2.6479    1.3663 H   0  0  0  0  0  0
    2.2623    0.8324    1.4718 H   0  0  0  0  0  0
   -1.5003    5.9615    3.1106 H   0  0  0  0  0  0
    3.0224    0.0329    5.1792 H   0  0  0  0  0  0
    2.7999   -1.0846    2.6563 H   0  0  0  0  0  0
   -0.2152    0.2338    2.6695 H   0  0  0  0  0  0
    1.0588    8.1259    0.1528 H   0  0  0  0  0  0
    2.4259    7.0892   -0.2056 H   0  0  0  0  0  0
    5.2857    0.6114    4.5144 H   0  0  0  0  0  0
    4.8481   -0.7005    3.4487 H   0  0  0  0  0  0
    1.6444   -1.6210    4.6380 H   0  0  0  0  0  0
    8.3897   -1.1428   -1.5851 H   0  0  0  0  0  0
    8.1689    0.4390   -0.8215 H   0  0  0  0  0  0
    8.8155   -0.9149    0.1181 H   0  0  0  0  0  0
    4.9026    1.6066    0.0265 O   0  5  0  0  0  0
  1  2  1  0  0  0
  1  3  1  0  0  0
  1  4  1  0  0  0
  2  5  2  0  0  0
  2  6  1  0  0  0
  3  7  1  0  0  0
  3  8  1  0  0  0
  3 26  1  0  0  0
  4  9  2  0  0  0
  4 27  1  0  0  0
  5 10  1  0  0  0
  5  9  1  0  0  0
  6 11  2  0  0  0
  7 12  1  0  0  0
  8 13  1  0  0  0
  8 14  1  0  0  0
  8 28  1  0  0  0
 10 15  2  0  0  0
 10 16  1  0  0  0
 11 15  1  0  0  0
 11 29  1  0  0  0
 12 17  1  0  0  0
 12 13  1  0  0  0
 12 30  1  0  0  0
 13 18  1  0  0  0
 13 31  1  0  0  0
 14 32  1  0  0  0
 16 33  1  0  0  0
 16 34  1  0  0  0
 17 19  1  0  0  0
 17 35  1  0  0  0
 17 36  1  0  0  0
 18 37  1  0  0  0
 19 20  1  0  0  0
 20 21  1  0  0  0
 20 22  2  0  0  0
 20 41  1  0  0  0
 21 23  1  0  0  0
 23 24  1  0  0  0
 23 25  2  0  0  0
 24 38  1  0  0  0
 24 39  1  0  0  0
 24 40  1  0  0  0
M  CHG  1  41  -1
M  END
> <i_ionizer_Ion_state_n>
2

> <i_ionizer_Tot_Q>
-1

> <s_ionizer_Ion_centers>
41

> <s_ionizer_Ion_types>
OM

> <s_ionizer_Ion_ctrs_in>
22

> <r_ionizer_Ionization_penalty>
2.61947e-05

> <r_ionizer_Ionization_penalty_charging>
7.45891e-06

> <r_ionizer_Ionization_penalty_neutral>
1.87357e-05

> <s_st_Chirality_1>
3_R_7_1_8_26

> <s_st_Chirality_2>
8_R_14_3_13_28

> <s_st_Chirality_3>
12_R_7_13_17_30

> <s_st_Chirality_4>
13_R_18_8_12_31

> <i_mmod_Serial_Number-OPLS-2005>
842

> <i_i_glide_lignum>
830

> <r_i_docking_score>
-6.29249

> <r_i_glide_gscore>
-6.29249

> <r_i_glide_lipo>
-0.762218

> <r_i_glide_hbond>
-0.0717852

> <r_i_glide_metal>
0

> <r_i_glide_eburp>
-0.846547

> <r_i_glide_evdw>
-47.5938

> <r_i_glide_ecoul>
-3.6494

> <r_i_glide_erotb>
0.738521

> <r_i_glide_esite>
-1.17802

> <r_i_glide_emodel>
-74.3408

> <r_i_glide_energy>
-51.2432

> <r_i_glide_einternal>
9.15196

> <i_i_glide_confnum>
464

> <i_i_glide_posenum>
991

$$$$
C04405
                    3D
 Structure written by MMmdl.
 95 97  0  0  1  0            999 V2000
  -12.5857   14.4956    4.4709 N   0  0  0  0  0  0
  -13.1512   14.3874    5.8606 C   0  0  1  0  0  0
  -12.3427   13.4199    3.6445 C   0  0  0  0  0  0
  -12.2328   15.6028    3.7178 C   0  0  0  0  0  0
  -14.1002   13.1961    6.0192 C   0  0  1  0  0  0
  -12.0942   14.1795    6.7477 O   0  0  0  0  0  0
  -11.8414   13.9613    2.4305 C   0  0  0  0  0  0
  -12.5344   12.0939    3.9091 N   0  0  0  0  0  0
  -11.7821   15.3436    2.5193 N   0  0  0  0  0  0
  -13.1610   12.0886    6.5087 C   0  0  1  0  0  0
  -15.1468   13.5098    6.9113 O   0  0  0  0  0  0
  -11.8542   12.7880    6.9494 C   0  0  1  0  0  0
  -11.5204   13.0199    1.4212 C   0  0  0  0  0  0
  -12.1892   11.3300    2.8687 C   0  0  0  0  0  0
  -13.7722   11.1566    7.4057 O   0  0  0  0  0  0
  -10.5919   12.3807    6.1658 C   0  0  0  0  0  0
  -11.7077   11.7044    1.6786 N   0  0  0  0  0  0
  -11.0407   13.3716    0.2211 N   0  0  0  0  0  0
  -15.1350   10.1068    6.8609 P   0  0  0  0  0  0
   -9.4271   12.9744    6.7015 O   0  0  0  0  0  0
  -15.0993    8.9682    7.9033 O   0  0  0  0  0  0
   -7.9245   12.1857    6.5773 P   0  0  0  0  0  0
   -6.8126   13.4739    6.5884 O   0  0  0  0  0  0
   -7.7201   11.3989    7.8158 O   0  0  0  0  0  0
   -5.8114   14.2349    5.4430 P   0  0  0  0  0  0
   -4.7661   12.9954    4.9212 O   0  0  0  0  0  0
   -6.6538   14.6231    4.2891 O   0  0  0  0  0  0
   -3.8355   12.3765    5.7963 C   0  0  0  0  0  0
   -3.2535   11.0783    5.1826 C   0  0  0  0  0  0
   -4.4418   10.1055    4.8706 C   0  0  2  0  0  0
   -2.4465   11.4461    3.9147 C   0  0  0  0  0  0
   -2.2954   10.4320    6.2111 C   0  0  0  0  0  0
   -4.0405    8.6902    4.4135 C   0  0  0  0  0  0
   -5.3076   10.6634    3.8991 O   0  0  0  0  0  0
   -3.3711    8.6090    3.2539 N   0  0  0  0  0  0
   -4.3058    7.7023    5.0991 O   0  0  0  0  0  0
   -2.8159    7.3783    2.7078 C   0  0  0  0  0  0
   -1.3671    7.1811    3.1859 C   0  0  0  0  0  0
   -0.6153    6.1098    2.3899 C   0  0  0  0  0  0
    0.5010    6.5090    1.7638 N   0  0  0  0  0  0
   -1.0365    4.9541    2.3389 O   0  0  0  0  0  0
    1.2906    5.6656    0.8770 C   0  0  0  0  0  0
    1.5335    4.2911    1.5102 C   0  0  0  0  0  0
    2.6500    4.4104    2.9380 S   0  0  0  0  0  0
    3.0582    2.6533    3.1320 C   0  0  0  0  0  0
    1.8910    1.7123    3.4764 C   0  0  2  0  0  0
    4.2023    2.2187    3.0044 O   0  0  0  0  0  0
    2.3463    0.2337    3.6078 C   0  0  2  0  0  0
    0.7506    1.9035    2.4564 C   0  0  0  0  0  0
    1.1897   -0.7452    3.8683 C   0  0  0  0  0  0
    3.2397    0.0989    4.6973 O   0  0  0  0  0  0
  -13.6312   15.3531    6.0251 H   0  0  0  0  0  0
  -12.3252   16.6227    4.0627 H   0  0  0  0  0  0
  -14.5768   12.9475    5.0713 H   0  0  0  0  0  0
  -12.9170   11.4975    5.6300 H   0  0  0  0  0  0
  -14.7433   13.7802    7.7344 H   0  0  0  0  0  0
  -11.6437   12.6431    8.0061 H   0  0  0  0  0  0
  -12.3169   10.2666    3.0082 H   0  0  0  0  0  0
  -10.4569   11.3017    6.1598 H   0  0  0  0  0  0
  -10.6932   12.6872    5.1244 H   0  0  0  0  0  0
  -10.8309   12.6627   -0.4656 H   0  0  0  0  0  0
  -10.9076   14.3498    0.0066 H   0  0  0  0  0  0
   -3.0324   13.0734    6.0376 H   0  0  0  0  0  0
   -4.3396   12.1683    6.7396 H   0  0  0  0  0  0
   -5.0386   10.0016    5.7786 H   0  0  0  0  0  0
   -3.0792   11.9035    3.1532 H   0  0  0  0  0  0
   -1.9640   10.5781    3.4674 H   0  0  0  0  0  0
   -1.6569   12.1621    4.1440 H   0  0  0  0  0  0
   -1.8181    9.5329    5.8216 H   0  0  0  0  0  0
   -1.4907   11.1125    6.4903 H   0  0  0  0  0  0
   -2.8226   10.1585    7.1256 H   0  0  0  0  0  0
   -4.8860   10.6266    3.0550 H   0  0  0  0  0  0
   -3.2474    9.4537    2.7148 H   0  0  0  0  0  0
   -3.4352    6.5352    3.0197 H   0  0  0  0  0  0
   -2.8557    7.4235    1.6179 H   0  0  0  0  0  0
   -0.8163    8.1189    3.1050 H   0  0  0  0  0  0
   -1.3669    6.9061    4.2420 H   0  0  0  0  0  0
    0.8224    7.4546    1.9123 H   0  0  0  0  0  0
    0.7686    5.5513   -0.0745 H   0  0  0  0  0  0
    2.2432    6.1547    0.6665 H   0  0  0  0  0  0
    0.5869    3.8571    1.8352 H   0  0  0  0  0  0
    1.9691    3.6134    0.7748 H   0  0  0  0  0  0
    1.5068    2.0356    4.4455 H   0  0  0  0  0  0
    2.8685   -0.0826    2.7039 H   0  0  0  0  0  0
    0.9756    1.4187    1.5057 H   0  0  0  0  0  0
   -0.1842    1.4836    2.8279 H   0  0  0  0  0  0
    0.5629    2.9592    2.2553 H   0  0  0  0  0  0
    0.6201   -0.4640    4.7548 H   0  0  0  0  0  0
    0.4996   -0.7830    3.0256 H   0  0  0  0  0  0
    1.5617   -1.7592    4.0199 H   0  0  0  0  0  0
    3.5155   -0.8034    4.7537 H   0  0  0  0  0  0
  -16.3656   11.0411    6.9249 O   0  5  0  0  0  0
  -14.6755    9.7234    5.4374 O   0  5  0  0  0  0
   -7.8602   11.5036    5.2650 O   0  5  0  0  0  0
   -5.0089   15.2730    6.1306 O   0  5  0  0  0  0
  1  2  1  0  0  0
  1  3  1  0  0  0
  1  4  1  0  0  0
  2  5  1  0  0  0
  2  6  1  0  0  0
  2 52  1  0  0  0
  3  7  2  0  0  0
  3  8  1  0  0  0
  4  9  2  0  0  0
  4 53  1  0  0  0
  5 10  1  0  0  0
  5 11  1  0  0  0
  5 54  1  0  0  0
  6 12  1  0  0  0
  7 13  1  0  0  0
  7  9  1  0  0  0
  8 14  2  0  0  0
 10 15  1  0  0  0
 10 12  1  0  0  0
 10 55  1  0  0  0
 11 56  1  0  0  0
 12 16  1  0  0  0
 12 57  1  0  0  0
 13 17  2  0  0  0
 13 18  1  0  0  0
 14 17  1  0  0  0
 14 58  1  0  0  0
 15 19  1  0  0  0
 16 20  1  0  0  0
 16 59  1  0  0  0
 16 60  1  0  0  0
 18 61  1  0  0  0
 18 62  1  0  0  0
 19 21  2  0  0  0
 19 92  1  0  0  0
 19 93  1  0  0  0
 20 22  1  0  0  0
 22 23  1  0  0  0
 22 24  2  0  0  0
 22 94  1  0  0  0
 23 25  1  0  0  0
 25 26  1  0  0  0
 25 27  2  0  0  0
 25 95  1  0  0  0
 26 28  1  0  0  0
 28 29  1  0  0  0
 28 63  1  0  0  0
 28 64  1  0  0  0
 29 30  1  0  0  0
 29 31  1  0  0  0
 29 32  1  0  0  0
 30 33  1  0  0  0
 30 34  1  0  0  0
 30 65  1  0  0  0
 31 66  1  0  0  0
 31 67  1  0  0  0
 31 68  1  0  0  0
 32 69  1  0  0  0
 32 70  1  0  0  0
 32 71  1  0  0  0
 33 35  1  0  0  0
 33 36  2  0  0  0
 34 72  1  0  0  0
 35 37  1  0  0  0
 35 73  1  0  0  0
 37 38  1  0  0  0
 37 74  1  0  0  0
 37 75  1  0  0  0
 38 39  1  0  0  0
 38 76  1  0  0  0
 38 77  1  0  0  0
 39 40  1  0  0  0
 39 41  2  0  0  0
 40 42  1  0  0  0
 40 78  1  0  0  0
 42 43  1  0  0  0
 42 79  1  0  0  0
 42 80  1  0  0  0
 43 44  1  0  0  0
 43 81  1  0  0  0
 43 82  1  0  0  0
 44 45  1  0  0  0
 45 46  1  0  0  0
 45 47  2  0  0  0
 46 48  1  0  0  0
 46 49  1  0  0  0
 46 83  1  0  0  0
 48 50  1  0  0  0
 48 51  1  0  0  0
 48 84  1  0  0  0
 49 85  1  0  0  0
 49 86  1  0  0  0
 49 87  1  0  0  0
 50 88  1  0  0  0
 50 89  1  0  0  0
 50 90  1  0  0  0
 51 91  1  0  0  0
M  CHG  4  92  -1  93  -1  94  -1  95  -1
M  END
> <i_ionizer_Ion_state_n>
30

> <i_ionizer_Tot_Q>
-4

> <s_ionizer_Ion_centers>
92_93_94_95

> <s_ionizer_Ion_types>
OM_OM_OM_OM

> <s_ionizer_Ion_ctrs_in>
21_22_26_30

> <r_ionizer_Ionization_penalty>
4.85714e-05

> <r_ionizer_Ionization_penalty_charging>
2.98356e-05

> <r_ionizer_Ionization_penalty_neutral>
1.87357e-05

> <s_st_Chirality_1>
2_R_6_1_5_52

> <s_st_Chirality_2>
5_R_11_2_10_54

> <s_st_Chirality_3>
10_R_15_5_12_55

> <s_st_Chirality_4>
12_R_6_10_16_57

> <s_st_Chirality_5>
46_S_45_48_49_83

> <s_st_Chirality_6>
48_S_51_46_50_84

> <s_st_Chirality_7>
30_R_34_33_29_65

> <i_mmod_Serial_Number-OPLS-2005>
597

> <i_i_glide_lignum>
591

> <r_i_docking_score>
-6.28217

> <r_i_glide_gscore>
-6.28217

> <r_i_glide_lipo>
-0.953678

> <r_i_glide_hbond>
-1.96681

> <r_i_glide_metal>
0

> <r_i_glide_eburp>
1.03433e-16

> <r_i_glide_evdw>
-41.5783

> <r_i_glide_ecoul>
-8.86894

> <r_i_glide_erotb>
0.529147

> <r_i_glide_esite>
0.322323

> <r_i_glide_emodel>
-96.8148

> <r_i_glide_energy>
-50.4472

> <r_i_glide_einternal>
18.0934

> <i_i_glide_confnum>
186

> <i_i_glide_posenum>
443

$$$$
C04751
                    3D
 Structure written by MMmdl.
 33 34  0  0  1  0            999 V2000
    4.2030    0.3843    0.7034 N   0  0  0  0  0  0
    2.8437    0.0970    1.2645 C   0  0  2  0  0  0
    5.0931   -0.5241    0.1340 C   0  0  0  0  0  0
    4.8327    1.5680    0.6462 C   0  0  0  0  0  0
    2.0379    1.2606    1.1179 O   0  0  0  0  0  0
    2.9621   -0.1248    2.7677 C   0  0  1  0  0  0
    6.2182    0.1867   -0.2427 C   0  0  0  0  0  0
    4.7742   -1.8748    0.0340 N   0  0  0  0  0  0
    6.0376    1.5296    0.0937 N   0  0  0  0  0  0
    1.3475    1.5675    2.3147 C   0  0  1  0  0  0
    1.6697    0.4434    3.3109 C   0  0  1  0  0  0
    3.0925   -1.4989    3.0780 O   0  0  0  0  0  0
    7.4517   -0.3421   -0.8997 C   0  0  0  0  0  0
    1.7459    2.9531    2.8511 C   0  0  0  0  0  0
    0.6407   -0.5223    3.3991 O   0  0  0  0  0  0
    7.4201   -1.4559   -1.4700 O   0  0  0  0  0  0
    1.2463    3.9812    2.0118 O   0  0  0  0  0  0
   -0.0509    4.9968    2.7133 P   0  0  0  0  0  0
    0.6775    5.6799    3.8916 O   0  0  0  0  0  0
    2.4940   -0.7781    0.7158 H   0  0  0  0  0  0
    4.3995    2.4843    1.0193 H   0  0  0  0  0  0
    3.8271    0.3991    3.1774 H   0  0  0  0  0  0
    5.4254   -2.5311   -0.3766 H   0  0  0  0  0  0
    3.9122   -2.2836    0.3651 H   0  0  0  0  0  0
    0.2747    1.5378    2.1164 H   0  0  0  0  0  0
    1.8456    0.8706    4.2992 H   0  0  0  0  0  0
    3.3766   -1.5561    3.9790 H   0  0  0  0  0  0
    1.4427    3.0760    3.8914 H   0  0  0  0  0  0
    2.8316    3.0477    2.8367 H   0  0  0  0  0  0
    0.9294   -1.1823    4.0270 H   0  0  0  0  0  0
    8.4991    0.3419   -0.8680 O   0  5  0  0  0  0
   -0.4218    5.9096    1.5235 O   0  5  0  0  0  0
   -1.0996    3.9314    3.0998 O   0  5  0  0  0  0
  1  2  1  0  0  0
  1  3  1  0  0  0
  1  4  1  0  0  0
  2  5  1  0  0  0
  2  6  1  0  0  0
  2 20  1  0  0  0
  3  7  2  0  0  0
  3  8  1  0  0  0
  4  9  2  0  0  0
  4 21  1  0  0  0
  5 10  1  0  0  0
  6 11  1  0  0  0
  6 12  1  0  0  0
  6 22  1  0  0  0
  7 13  1  0  0  0
  7  9  1  0  0  0
  8 23  1  0  0  0
  8 24  1  0  0  0
 10 14  1  0  0  0
 10 11  1  0  0  0
 10 25  1  0  0  0
 11 15  1  0  0  0
 11 26  1  0  0  0
 12 27  1  0  0  0
 13 16  2  0  0  0
 13 31  1  0  0  0
 14 17  1  0  0  0
 14 28  1  0  0  0
 14 29  1  0  0  0
 15 30  1  0  0  0
 17 18  1  0  0  0
 18 19  2  0  0  0
 18 32  1  0  0  0
 18 33  1  0  0  0
M  CHG  3  31  -1  32  -1  33  -1
M  END
> <i_ionizer_Ion_state_n>
14

> <i_ionizer_Tot_Q>
-3

> <s_ionizer_Ion_centers>
31_32_33

> <s_ionizer_Ion_types>
OM_OM_OM

> <s_ionizer_Ion_ctrs_in>
16_20_21

> <r_ionizer_Ionization_penalty>
0.411287

> <r_ionizer_Ionization_penalty_charging>
0.000607108

> <r_ionizer_Ionization_penalty_neutral>
0.41068

> <s_st_Chirality_1>
2_R_5_1_6_20

> <s_st_Chirality_2>
6_R_12_2_11_22

> <s_st_Chirality_3>
10_R_5_11_14_25

> <s_st_Chirality_4>
11_R_15_6_10_26

> <i_mmod_Serial_Number-OPLS-2005>
610

> <i_i_glide_lignum>
604

> <r_i_docking_score>
-6.27951

> <r_i_glide_gscore>
-6.27951

> <r_i_glide_lipo>
-0.62355

> <r_i_glide_hbond>
-1.168

> <r_i_glide_metal>
0

> <r_i_glide_eburp>
-1.24109

> <r_i_glide_evdw>
-25.9614

> <r_i_glide_ecoul>
-8.20177

> <r_i_glide_erotb>
0.572862

> <r_i_glide_esite>
-0.922646

> <r_i_glide_emodel>
-81.6035

> <r_i_glide_energy>
-34.1632

> <r_i_glide_einternal>
5.92718

> <i_i_glide_confnum>
34

> <i_i_glide_posenum>
996

$$$$
C00450
                    3D
 Structure written by MMmdl.
 18 18  0  0  1  0            999 V2000
    3.1255    0.3520    3.2334 C   0  0  2  0  0  0
    2.7965    1.8519    3.0839 C   0  0  0  0  0  0
    1.8739   -0.5094    3.4569 C   0  0  0  0  0  0
    4.1001    2.6598    3.1064 C   0  0  0  0  0  0
    4.9174    0.9819    4.8139 C   0  0  0  0  0  0
    1.0957   -0.1549    4.3684 O   0  0  0  0  0  0
    4.8856    2.4339    4.4148 C   0  0  0  0  0  0
    3.6002   -0.0072    2.3192 H   0  0  0  0  0  0
    2.2585    2.0326    2.1524 H   0  0  0  0  0  0
    2.1438    2.1835    3.8933 H   0  0  0  0  0  0
    4.7167    2.3669    2.2552 H   0  0  0  0  0  0
    3.8887    3.7218    2.9790 H   0  0  0  0  0  0
    5.5930    0.6425    5.5900 H   0  0  0  0  0  0
    5.9070    2.7987    4.3035 H   0  0  0  0  0  0
    4.4319    3.0005    5.2285 H   0  0  0  0  0  0
    4.1194    0.1002    4.3015 N   0  3  0  0  0  0
    4.0998   -0.8410    4.6860 H   0  0  0  0  0  0
    1.7026   -1.4935    2.7017 O   0  5  0  0  0  0
  1  2  1  0  0  0
  1  3  1  0  0  0
  1  8  1  0  0  0
  1 16  1  0  0  0
  2  4  1  0  0  0
  2  9  1  0  0  0
  2 10  1  0  0  0
  3  6  2  0  0  0
  3 18  1  0  0  0
  4  7  1  0  0  0
  4 11  1  0  0  0
  4 12  1  0  0  0
  5  7  1  0  0  0
  5 13  1  0  0  0
  5 16  2  0  0  0
  7 14  1  0  0  0
  7 15  1  0  0  0
 16 17  1  0  0  0
M  CHG  2  16   1  18  -1
M  END
> <i_ionizer_Ion_state_n>
3

> <i_ionizer_Tot_Q>
0

> <s_ionizer_Ion_centers>
16_18

> <s_ionizer_Ion_types>
N4_OM

> <s_ionizer_Ion_ctrs_in>
3_7

> <r_ionizer_Ionization_penalty>
0.000610925

> <r_ionizer_Ionization_penalty_charging>
0.000610925

> <r_ionizer_Ionization_penalty_neutral>
0

> <s_st_Chirality_1>
1_R_16_3_2_8

> <s_st_EZ_1>
7_5_16_1_Z

> <i_mmod_Serial_Number-OPLS-2005>
244

> <i_i_glide_lignum>
242

> <r_i_docking_score>
-6.27683

> <r_i_glide_gscore>
-6.27683

> <r_i_glide_lipo>
-0.354871

> <r_i_glide_hbond>
-0.829893

> <r_i_glide_metal>
0

> <r_i_glide_eburp>
-2.5

> <r_i_glide_evdw>
-13.7006

> <r_i_glide_ecoul>
-9.30996

> <r_i_glide_erotb>
0

> <r_i_glide_esite>
-0.565026

> <r_i_glide_emodel>
-41.8062

> <r_i_glide_energy>
-23.0105

> <r_i_glide_einternal>
0.612444

> <i_i_glide_confnum>
1

> <i_i_glide_posenum>
174

$$$$
C02918
                    3D
 Structure written by MMmdl.
 19 19  0  0  1  0            999 V2000
    2.3241    0.7149    3.3885 C   0  0  0  0  0  0
    3.3377    0.3360    4.2978 C   0  0  0  0  0  0
    2.4170    1.9814    2.7644 C   0  0  0  0  0  0
    1.1604   -0.2005    3.1399 C   0  0  0  0  0  0
    4.3831    1.1597    4.5544 N   0  3  0  0  0  0
    3.5188    2.8132    3.0464 C   0  0  0  0  0  0
    0.8997   -1.0998    4.0920 N   0  0  0  0  0  0
    0.4591   -0.0800    2.1380 O   0  0  0  0  0  0
    4.5009    2.3697    3.9543 C   0  0  0  0  0  0
    5.4218    0.7226    5.4991 C   0  0  0  0  0  0
    3.3360   -0.6095    4.8220 H   0  0  0  0  0  0
    1.6559    2.3244    2.0783 H   0  0  0  0  0  0
    3.6074    3.7812    2.5743 H   0  0  0  0  0  0
    0.1141   -1.7245    3.9826 H   0  0  0  0  0  0
    1.4796   -1.1496    4.9165 H   0  0  0  0  0  0
    5.3706    2.9567    4.2121 H   0  0  0  0  0  0
    4.9678    0.1002    6.2715 H   0  0  0  0  0  0
    6.1683    0.1532    4.9448 H   0  0  0  0  0  0
    5.8811    1.5955    5.9648 H   0  0  0  0  0  0
  1  2  2  0  0  0
  1  3  1  0  0  0
  1  4  1  0  0  0
  2  5  1  0  0  0
  2 11  1  0  0  0
  3  6  2  0  0  0
  3 12  1  0  0  0
  4  7  1  0  0  0
  4  8  2  0  0  0
  5  9  2  0  0  0
  5 10  1  0  0  0
  6  9  1  0  0  0
  6 13  1  0  0  0
  7 14  1  0  0  0
  7 15  1  0  0  0
  9 16  1  0  0  0
 10 17  1  0  0  0
 10 18  1  0  0  0
 10 19  1  0  0  0
M  CHG  1   5   1
M  END
> <i_ionizer_Ion_state_n>
0

> <i_ionizer_Tot_Q>
1

> <s_ionizer_Ion_centers>


> <s_ionizer_Ion_types>


> <s_ionizer_Ion_ctrs_in>


> <r_ionizer_Ionization_penalty>
0

> <r_ionizer_Ionization_penalty_charging>
0

> <r_ionizer_Ionization_penalty_neutral>
0

> <i_mmod_Serial_Number-OPLS-2005>
514

> <i_i_glide_lignum>
508

> <r_i_docking_score>
-6.27286

> <r_i_glide_gscore>
-6.27286

> <r_i_glide_lipo>
-0.558602

> <r_i_glide_hbond>
-0.379534

> <r_i_glide_metal>
0

> <r_i_glide_eburp>
-2.5

> <r_i_glide_evdw>
-20.3596

> <r_i_glide_ecoul>
-5.11102

> <r_i_glide_erotb>
0

> <r_i_glide_esite>
-0.69486

> <r_i_glide_emodel>
-35.0769

> <r_i_glide_energy>
-25.4706

> <r_i_glide_einternal>
0.495585

> <i_i_glide_confnum>
1

> <i_i_glide_posenum>
980

$$$$
C01197
                    3D
 Structure written by MMmdl.
 20 20  0  0  1  0            999 V2000
    2.7905    2.8149    3.4985 C   0  0  0  0  0  0
    2.5369    1.4258    3.5022 C   0  0  0  0  0  0
    4.0653    3.2756    3.9036 C   0  0  0  0  0  0
    1.7149    3.7281    3.0722 C   0  0  0  0  0  0
    3.5328    0.5130    3.9012 C   0  0  0  0  0  0
    5.0631    2.3651    4.3032 C   0  0  0  0  0  0
    0.3947    3.4692    3.0675 C   0  0  0  0  0  0
    4.7994    0.9822    4.3030 C   0  0  0  0  0  0
    3.2706   -0.8261    3.8987 O   0  0  0  0  0  0
   -0.6785    4.4817    2.6041 C   0  0  0  0  0  0
    5.7689    0.1013    4.6910 O   0  0  0  0  0  0
   -0.2506    5.5870    2.2074 O   0  0  0  0  0  0
    1.5700    1.0529    3.1964 H   0  0  0  0  0  0
    4.2983    4.3290    3.9147 H   0  0  0  0  0  0
    2.0341    4.7028    2.7306 H   0  0  0  0  0  0
    6.0306    2.7349    4.6093 H   0  0  0  0  0  0
    0.0262    2.5118    3.3989 H   0  0  0  0  0  0
    3.8776   -1.2959    4.4512 H   0  0  0  0  0  0
    5.4253   -0.7469    4.9266 H   0  0  0  0  0  0
   -1.8651    4.1010    2.7000 O   0  5  0  0  0  0
  1  2  2  0  0  0
  1  3  1  0  0  0
  1  4  1  0  0  0
  2  5  1  0  0  0
  2 13  1  0  0  0
  3  6  2  0  0  0
  3 14  1  0  0  0
  4  7  2  0  0  0
  4 15  1  0  0  0
  5  8  2  0  0  0
  5  9  1  0  0  0
  6  8  1  0  0  0
  6 16  1  0  0  0
  7 10  1  0  0  0
  7 17  1  0  0  0
  8 11  1  0  0  0
  9 18  1  0  0  0
 10 12  2  0  0  0
 10 20  1  0  0  0
 11 19  1  0  0  0
M  CHG  1  20  -1
M  END
> <i_ionizer_Ion_state_n>
4

> <i_ionizer_Tot_Q>
-1

> <s_ionizer_Ion_centers>
20

> <s_ionizer_Ion_types>
OM

> <s_ionizer_Ion_ctrs_in>
12

> <r_ionizer_Ionization_penalty>
0.00177657

> <r_ionizer_Ionization_penalty_charging>
0.00059219

> <r_ionizer_Ionization_penalty_neutral>
0.00118438

> <s_st_EZ_1>
1_4_7_10_E

> <i_mmod_Serial_Number-OPLS-2005>
420

> <i_i_glide_lignum>
416

> <r_i_docking_score>
-6.27158

> <r_i_glide_gscore>
-6.27158

> <r_i_glide_lipo>
-0.709752

> <r_i_glide_hbond>
-1.58893

> <r_i_glide_metal>
0

> <r_i_glide_eburp>
-2.43065

> <r_i_glide_evdw>
-14.7479

> <r_i_glide_ecoul>
-12.3166

> <r_i_glide_erotb>
1.11974

> <r_i_glide_esite>
-0.2505

> <r_i_glide_emodel>
-52.3513

> <r_i_glide_energy>
-27.0645

> <r_i_glide_einternal>
1.81603

> <i_i_glide_confnum>
4

> <i_i_glide_posenum>
489

$$$$
C05271
                    3D
 Structure written by MMmdl.
 95 97  0  0  1  0            999 V2000
  -10.9708    8.8304   13.8091 N   0  0  0  0  0  0
  -11.5991    8.5578   12.4748 C   0  0  1  0  0  0
  -10.9263    7.9414   14.8621 C   0  0  0  0  0  0
  -10.2720    9.9370   14.2539 C   0  0  0  0  0  0
  -12.3299    9.7846   11.9100 C   0  0  1  0  0  0
  -10.5679    8.2353   11.5867 O   0  0  0  0  0  0
  -10.2076    8.5974   15.8980 C   0  0  0  0  0  0
  -11.4542    6.6835   14.9304 N   0  0  0  0  0  0
   -9.8146    9.8588   15.4756 N   0  0  0  0  0  0
  -11.9714    9.6927   10.4382 C   0  0  1  0  0  0
  -13.7351    9.7249   12.0312 O   0  0  0  0  0  0
  -10.5422    9.1381   10.4810 C   0  0  1  0  0  0
  -10.0433    7.8604   17.0975 C   0  0  0  0  0  0
  -11.2198    6.1141   16.1159 C   0  0  0  0  0  0
  -12.8507    8.7487    9.8314 O   0  0  0  0  0  0
   -9.4511   10.1908   10.7462 C   0  0  0  0  0  0
  -10.5667    6.6145   17.1701 N   0  0  0  0  0  0
   -9.3912    8.3387   18.1653 N   0  0  0  0  0  0
  -14.2938    9.3866    8.9757 P   0  0  0  0  0  0
   -9.4617   11.2268    9.7853 O   0  0  0  0  0  0
  -13.6919   10.2839    7.8722 O   0  0  0  0  0  0
   -8.4447   12.5835    9.9608 P   0  0  0  0  0  0
   -7.1625   12.3384    8.8668 O   0  0  0  0  0  0
   -9.2007   13.7806    9.5243 O   0  0  0  0  0  0
   -6.4226   11.0092    8.1043 P   0  0  0  0  0  0
   -5.1356   11.7470    7.2741 O   0  0  0  0  0  0
   -7.3696   10.4657    7.1030 O   0  0  0  0  0  0
   -4.4721   11.0932    6.2047 C   0  0  0  0  0  0
   -3.4548   12.0249    5.4972 C   0  0  0  0  0  0
   -2.9674   11.3351    4.1771 C   0  0  2  0  0  0
   -4.1344   13.3830    5.2084 C   0  0  0  0  0  0
   -2.2618   12.2625    6.4517 C   0  0  0  0  0  0
   -2.4110    9.9073    4.3528 C   0  0  0  0  0  0
   -2.0125   12.1371    3.4996 O   0  0  0  0  0  0
   -2.3360    9.1388    3.2549 N   0  0  0  0  0  0
   -2.0704    9.5116    5.4677 O   0  0  0  0  0  0
   -1.7162    7.8231    3.1975 C   0  0  0  0  0  0
   -1.0848    7.5896    1.8139 C   0  0  0  0  0  0
    0.1034    6.6228    1.8387 C   0  0  0  0  0  0
    1.0672    6.8536    0.9360 N   0  0  0  0  0  0
    0.1515    5.6970    2.6492 O   0  0  0  0  0  0
    2.3844    6.2326    0.9653 C   0  0  0  0  0  0
    2.2688    4.7083    0.8534 C   0  0  0  0  0  0
    3.7649    3.8866    1.4781 S   0  0  0  0  0  0
    3.3369    2.1651    1.1161 C   0  0  0  0  0  0
    2.1924    1.6089    1.8541 C   0  0  0  0  0  0
    3.9835    1.5167    0.2926 O   0  0  0  0  0  0
    1.8019    0.3299    1.7065 C   0  0  0  0  0  0
    0.6326   -0.2935    2.4404 C   0  0  0  0  0  0
    1.0828   -1.0597    3.6918 C   0  0  0  0  0  0
    1.9400   -0.2021    4.6291 C   0  0  0  0  0  0
  -12.2504    7.6945   12.6152 H   0  0  0  0  0  0
  -10.1085   10.8201   13.6545 H   0  0  0  0  0  0
  -11.9504   10.7109   12.3390 H   0  0  0  0  0  0
  -12.0412   10.6562    9.9410 H   0  0  0  0  0  0
  -13.9921    8.8887   11.6647 H   0  0  0  0  0  0
  -10.2827    8.5867    9.5781 H   0  0  0  0  0  0
  -11.6111    5.1150   16.2391 H   0  0  0  0  0  0
   -9.5449   10.6199   11.7386 H   0  0  0  0  0  0
   -8.4729    9.7110   10.7020 H   0  0  0  0  0  0
   -9.3008    7.7721   18.9955 H   0  0  0  0  0  0
   -8.9908    9.2653   18.1302 H   0  0  0  0  0  0
   -3.9701   10.1972    6.5726 H   0  0  0  0  0  0
   -5.2373   10.7447    5.5106 H   0  0  0  0  0  0
   -3.8213   11.2558    3.5026 H   0  0  0  0  0  0
   -3.4506   14.0969    4.7500 H   0  0  0  0  0  0
   -4.9916   13.2705    4.5432 H   0  0  0  0  0  0
   -4.4955   13.8419    6.1284 H   0  0  0  0  0  0
   -1.5327   12.9573    6.0355 H   0  0  0  0  0  0
   -2.5889   12.6890    7.4003 H   0  0  0  0  0  0
   -1.7424   11.3304    6.6764 H   0  0  0  0  0  0
   -1.9347   11.8287    2.6102 H   0  0  0  0  0  0
   -2.7300    9.5104    2.4013 H   0  0  0  0  0  0
   -0.9569    7.7485    3.9783 H   0  0  0  0  0  0
   -2.4727    7.0644    3.4058 H   0  0  0  0  0  0
   -1.8389    7.1949    1.1311 H   0  0  0  0  0  0
   -0.7477    8.5388    1.3953 H   0  0  0  0  0  0
    0.8750    7.5003    0.1846 H   0  0  0  0  0  0
    2.9863    6.6240    0.1435 H   0  0  0  0  0  0
    2.8911    6.5013    1.8937 H   0  0  0  0  0  0
    1.4064    4.3579    1.4222 H   0  0  0  0  0  0
    2.1134    4.4216   -0.1876 H   0  0  0  0  0  0
    1.6628    2.2648    2.5297 H   0  0  0  0  0  0
    2.3317   -0.3276    1.0313 H   0  0  0  0  0  0
   -0.0593    0.5021    2.7184 H   0  0  0  0  0  0
    0.0913   -0.9610    1.7684 H   0  0  0  0  0  0
    0.2079   -1.4198    4.2345 H   0  0  0  0  0  0
    1.6489   -1.9442    3.3971 H   0  0  0  0  0  0
    2.2441   -0.7719    5.5074 H   0  0  0  0  0  0
    2.8442    0.1452    4.1284 H   0  0  0  0  0  0
    1.3901    0.6737    4.9749 H   0  0  0  0  0  0
  -14.9704    8.0830    8.4977 O   0  5  0  0  0  0
  -15.0130   10.1313   10.1224 O   0  5  0  0  0  0
   -7.8791   12.5529   11.3290 O   0  5  0  0  0  0
   -5.8524   10.1074    9.1313 O   0  5  0  0  0  0
  1  2  1  0  0  0
  1  3  1  0  0  0
  1  4  1  0  0  0
  2  5  1  0  0  0
  2  6  1  0  0  0
  2 52  1  0  0  0
  3  7  2  0  0  0
  3  8  1  0  0  0
  4  9  2  0  0  0
  4 53  1  0  0  0
  5 10  1  0  0  0
  5 11  1  0  0  0
  5 54  1  0  0  0
  6 12  1  0  0  0
  7 13  1  0  0  0
  7  9  1  0  0  0
  8 14  2  0  0  0
 10 15  1  0  0  0
 10 12  1  0  0  0
 10 55  1  0  0  0
 11 56  1  0  0  0
 12 16  1  0  0  0
 12 57  1  0  0  0
 13 17  2  0  0  0
 13 18  1  0  0  0
 14 17  1  0  0  0
 14 58  1  0  0  0
 15 19  1  0  0  0
 16 20  1  0  0  0
 16 59  1  0  0  0
 16 60  1  0  0  0
 18 61  1  0  0  0
 18 62  1  0  0  0
 19 21  2  0  0  0
 19 92  1  0  0  0
 19 93  1  0  0  0
 20 22  1  0  0  0
 22 23  1  0  0  0
 22 24  2  0  0  0
 22 94  1  0  0  0
 23 25  1  0  0  0
 25 26  1  0  0  0
 25 27  2  0  0  0
 25 95  1  0  0  0
 26 28  1  0  0  0
 28 29  1  0  0  0
 28 63  1  0  0  0
 28 64  1  0  0  0
 29 30  1  0  0  0
 29 31  1  0  0  0
 29 32  1  0  0  0
 30 33  1  0  0  0
 30 34  1  0  0  0
 30 65  1  0  0  0
 31 66  1  0  0  0
 31 67  1  0  0  0
 31 68  1  0  0  0
 32 69  1  0  0  0
 32 70  1  0  0  0
 32 71  1  0  0  0
 33 35  1  0  0  0
 33 36  2  0  0  0
 34 72  1  0  0  0
 35 37  1  0  0  0
 35 73  1  0  0  0
 37 38  1  0  0  0
 37 74  1  0  0  0
 37 75  1  0  0  0
 38 39  1  0  0  0
 38 76  1  0  0  0
 38 77  1  0  0  0
 39 40  1  0  0  0
 39 41  2  0  0  0
 40 42  1  0  0  0
 40 78  1  0  0  0
 42 43  1  0  0  0
 42 79  1  0  0  0
 42 80  1  0  0  0
 43 44  1  0  0  0
 43 81  1  0  0  0
 43 82  1  0  0  0
 44 45  1  0  0  0
 45 46  1  0  0  0
 45 47  2  0  0  0
 46 48  2  0  0  0
 46 83  1  0  0  0
 48 49  1  0  0  0
 48 84  1  0  0  0
 49 50  1  0  0  0
 49 85  1  0  0  0
 49 86  1  0  0  0
 50 51  1  0  0  0
 50 87  1  0  0  0
 50 88  1  0  0  0
 51 89  1  0  0  0
 51 90  1  0  0  0
 51 91  1  0  0  0
M  CHG  4  92  -1  93  -1  94  -1  95  -1
M  END
> <i_ionizer_Ion_state_n>
30

> <i_ionizer_Tot_Q>
-4

> <s_ionizer_Ion_centers>
92_93_94_95

> <s_ionizer_Ion_types>
OM_OM_OM_OM

> <s_ionizer_Ion_ctrs_in>
21_22_26_30

> <r_ionizer_Ionization_penalty>
4.85714e-05

> <r_ionizer_Ionization_penalty_charging>
2.98356e-05

> <r_ionizer_Ionization_penalty_neutral>
1.87357e-05

> <s_st_Chirality_1>
2_R_6_1_5_52

> <s_st_Chirality_2>
5_R_11_2_10_54

> <s_st_Chirality_3>
10_R_15_5_12_55

> <s_st_Chirality_4>
12_R_6_10_16_57

> <s_st_Chirality_5>
30_R_34_33_29_65

> <s_st_EZ_1>
45_46_48_49_E

> <i_mmod_Serial_Number-OPLS-2005>
656

> <i_i_glide_lignum>
649

> <r_i_docking_score>
-6.26866

> <r_i_glide_gscore>
-6.26866

> <r_i_glide_lipo>
-0.953169

> <r_i_glide_hbond>
-1.7

> <r_i_glide_metal>
0

> <r_i_glide_eburp>
0

> <r_i_glide_evdw>
-42.0509

> <r_i_glide_ecoul>
-6.24965

> <r_i_glide_erotb>
0.536519

> <r_i_glide_esite>
-0.162972

> <r_i_glide_emodel>
-86.485

> <r_i_glide_energy>
-48.3005

> <r_i_glide_einternal>
15.3485

> <i_i_glide_confnum>
813

> <i_i_glide_posenum>
671

$$$$
C07084
                    3D
 Structure written by MMmdl.
 20 20  0  0  1  0            999 V2000
    2.9030    1.5807    3.1865 C   0  0  0  0  0  0
    3.5448    0.6359    4.2079 C   0  0  2  0  0  0
    3.3743    2.8381    3.0456 C   0  0  0  0  0  0
    1.7405    1.1542    2.4220 C   0  0  0  0  0  0
    5.0078    1.0053    4.5780 C   0  0  1  0  0  0
    3.5374   -0.6994    3.7412 O   0  0  0  0  0  0
    4.4937    3.3349    3.8195 C   0  0  0  0  0  0
    0.9170    0.1585    2.7898 C   0  0  0  0  0  0
    5.2594    2.5008    4.5389 C   0  0  0  0  0  0
    5.3002    0.5000    5.8649 O   0  0  0  0  0  0
    2.9181    0.6877    5.0998 H   0  0  0  0  0  0
    2.9099    3.5074    2.3356 H   0  0  0  0  0  0
    1.5172    1.6765    1.5030 H   0  0  0  0  0  0
    5.7032    0.5549    3.8680 H   0  0  0  0  0  0
    3.9078   -1.2460    4.4179 H   0  0  0  0  0  0
    4.7134    4.3925    3.8181 H   0  0  0  0  0  0
    0.0653   -0.1069    2.1810 H   0  0  0  0  0  0
    1.0789   -0.4053    3.6970 H   0  0  0  0  0  0
    6.0997    2.8837    5.0997 H   0  0  0  0  0  0
    5.1635   -0.4352    5.8596 H   0  0  0  0  0  0
  1  2  1  0  0  0
  1  3  2  0  0  0
  1  4  1  0  0  0
  2  5  1  0  0  0
  2  6  1  0  0  0
  2 11  1  0  0  0
  3  7  1  0  0  0
  3 12  1  0  0  0
  4  8  2  0  0  0
  4 13  1  0  0  0
  5  9  1  0  0  0
  5 10  1  0  0  0
  5 14  1  0  0  0
  6 15  1  0  0  0
  7  9  2  0  0  0
  7 16  1  0  0  0
  8 17  1  0  0  0
  8 18  1  0  0  0
  9 19  1  0  0  0
 10 20  1  0  0  0
M  END
> <i_ionizer_Ion_state_n>
0

> <i_ionizer_Tot_Q>
0

> <s_ionizer_Ion_centers>


> <s_ionizer_Ion_types>


> <s_ionizer_Ion_ctrs_in>


> <r_ionizer_Ionization_penalty>
0

> <r_ionizer_Ionization_penalty_charging>
0

> <r_ionizer_Ionization_penalty_neutral>
0

> <s_st_Chirality_1>
2_R_6_5_1_11

> <s_st_Chirality_2>
5_R_10_2_9_14

> <s_st_EZ_1>
2_1_3_7_Z

> <i_mmod_Serial_Number-OPLS-2005>
892

> <i_i_glide_lignum>
880

> <r_i_docking_score>
-6.26612

> <r_i_glide_gscore>
-6.26612

> <r_i_glide_lipo>
-0.758961

> <r_i_glide_hbond>
-0.9

> <r_i_glide_metal>
0

> <r_i_glide_eburp>
-2.5

> <r_i_glide_evdw>
-15.1632

> <r_i_glide_ecoul>
-9.68131

> <r_i_glide_erotb>
0.850881

> <r_i_glide_esite>
-0.776853

> <r_i_glide_emodel>
-31.5121

> <r_i_glide_energy>
-24.8445

> <r_i_glide_einternal>
1.33233

> <i_i_glide_confnum>
1

> <i_i_glide_posenum>
339

$$$$
C07096
                    3D
 Structure written by MMmdl.
 13 13  0  0  1  0            999 V2000
    2.7310    0.0818    1.2099 C   0  0  0  0  0  0
    1.7771   -0.0984    2.2364 C   0  0  0  0  0  0
    4.0948    0.2428    1.5399 C   0  0  0  0  0  0
    2.3393    0.1009   -0.0995 O   0  0  0  0  0  0
    2.1887   -0.1170    3.5838 C   0  0  0  0  0  0
    0.1021   -0.2978    1.8608 Cl  0  0  0  0  0  0
    4.5006    0.2235    2.8889 C   0  0  0  0  0  0
    5.2780    0.4646    0.3003 Cl  0  0  0  0  0  0
    3.5488    0.0437    3.9105 C   0  0  0  0  0  0
    3.0687    0.0506   -0.6987 H   0  0  0  0  0  0
    1.4600   -0.2547    4.3692 H   0  0  0  0  0  0
    5.5436    0.3466    3.1415 H   0  0  0  0  0  0
    3.8616    0.0291    4.9443 H   0  0  0  0  0  0
  1  2  1  0  0  0
  1  3  2  0  0  0
  1  4  1  0  0  0
  2  5  2  0  0  0
  2  6  1  0  0  0
  3  7  1  0  0  0
  3  8  1  0  0  0
  4 10  1  0  0  0
  5  9  1  0  0  0
  5 11  1  0  0  0
  7  9  2  0  0  0
  7 12  1  0  0  0
  9 13  1  0  0  0
M  END
> <i_ionizer_Ion_state_n>
0

> <i_ionizer_Tot_Q>
0

> <s_ionizer_Ion_centers>


> <s_ionizer_Ion_types>


> <s_ionizer_Ion_ctrs_in>


> <r_ionizer_Ionization_penalty>
0.00059219

> <r_ionizer_Ionization_penalty_charging>
0

> <r_ionizer_Ionization_penalty_neutral>
0.00059219

> <i_mmod_Serial_Number-OPLS-2005>
894

> <i_i_glide_lignum>
882

> <r_i_docking_score>
-6.25905

> <r_i_glide_gscore>
-6.25905

> <r_i_glide_lipo>
-0.8378

> <r_i_glide_hbond>
-0.403158

> <r_i_glide_metal>
0

> <r_i_glide_eburp>
-2.5

> <r_i_glide_evdw>
-19.8353

> <r_i_glide_ecoul>
-3.77602

> <r_i_glide_erotb>
0

> <r_i_glide_esite>
-0.553671

> <r_i_glide_emodel>
-29.8425

> <r_i_glide_energy>
-23.6113

> <r_i_glide_einternal>
0.137627

> <i_i_glide_confnum>
1

> <i_i_glide_posenum>
545

$$$$
C03546
                    3D
 Structure written by MMmdl.
 27 27  0  0  1  0            999 V2000
    0.5980    4.6526    3.2080 P   0  0  0  0  0  0
    1.9999    3.5362    3.3901 O   0  0  0  0  0  0
    0.7188    5.1601    1.7540 O   0  0  0  0  0  0
    2.1513    2.3760    2.5632 C   0  0  0  0  0  0
    3.2597    2.5403    1.4834 C   0  0  1  0  0  0
    2.3790    1.1282    3.4533 C   0  0  2  0  0  0
    3.5120    1.2439    0.6798 C   0  0  2  0  0  0
    2.8157    3.5430    0.5917 O   0  0  0  0  0  0
    2.6072   -0.1512    2.6169 C   0  0  2  0  0  0
    1.2586    0.9132    4.2936 O   0  0  0  0  0  0
    3.7682    0.0504    1.6243 C   0  0  0  0  0  0
    4.6781    1.4128   -0.1058 O   0  0  0  0  0  0
    1.4356   -0.4904    1.8910 O   0  0  0  0  0  0
    3.9576   -1.1453    0.8857 O   0  0  0  0  0  0
    1.1990    2.2439    2.0470 H   0  0  0  0  0  0
    4.2090    2.8421    1.9207 H   0  0  0  0  0  0
    3.2449    1.2651    4.0958 H   0  0  0  0  0  0
    2.6657    1.0326    0.0242 H   0  0  0  0  0  0
    3.5269    3.6964   -0.0181 H   0  0  0  0  0  0
    2.8389   -0.9831    3.2835 H   0  0  0  0  0  0
    1.4290    0.1573    4.8327 H   0  0  0  0  0  0
    4.6819    0.2350    2.1924 H   0  0  0  0  0  0
    4.7763    0.6421   -0.6440 H   0  0  0  0  0  0
    1.2655    0.2023    1.2705 H   0  0  0  0  0  0
    4.5210   -0.9573    0.1503 H   0  0  0  0  0  0
   -0.5848    3.7017    3.4999 O   0  5  0  0  0  0
    0.8979    5.6978    4.3041 O   0  5  0  0  0  0
  1  2  1  0  0  0
  1  3  2  0  0  0
  1 26  1  0  0  0
  1 27  1  0  0  0
  2  4  1  0  0  0
  4  5  1  0  0  0
  4  6  1  0  0  0
  4 15  1  0  0  0
  5  7  1  0  0  0
  5  8  1  0  0  0
  5 16  1  0  0  0
  6  9  1  0  0  0
  6 10  1  0  0  0
  6 17  1  0  0  0
  7 11  1  0  0  0
  7 12  1  0  0  0
  7 18  1  0  0  0
  8 19  1  0  0  0
  9 13  1  0  0  0
  9 11  1  0  0  0
  9 20  1  0  0  0
 10 21  1  0  0  0
 11 14  1  0  0  0
 11 22  1  0  0  0
 12 23  1  0  0  0
 13 24  1  0  0  0
 14 25  1  0  0  0
M  CHG  2  26  -1  27  -1
M  END
> <i_ionizer_Ion_state_n>
3

> <i_ionizer_Tot_Q>
-2

> <s_ionizer_Ion_centers>
26_27

> <s_ionizer_Ion_types>
OM_OM

> <s_ionizer_Ion_ctrs_in>
3_4

> <r_ionizer_Ionization_penalty>
1.49178e-05

> <r_ionizer_Ionization_penalty_charging>
1.49178e-05

> <r_ionizer_Ionization_penalty_neutral>
0

> <s_st_Chirality_1>
5_R_8_4_7_16

> <s_st_Chirality_2>
6_S_10_4_9_17

> <s_st_Chirality_3>
7_S_12_5_11_18

> <s_st_Chirality_4>
9_S_13_6_11_20

> <i_mmod_Serial_Number-OPLS-2005>
552

> <i_i_glide_lignum>
546

> <r_i_docking_score>
-6.25729

> <r_i_glide_gscore>
-6.25729

> <r_i_glide_lipo>
-0.512039

> <r_i_glide_hbond>
-1.53316

> <r_i_glide_metal>
0

> <r_i_glide_eburp>
-1.8324

> <r_i_glide_evdw>
-23.1552

> <r_i_glide_ecoul>
-9.95062

> <r_i_glide_erotb>
0.3029

> <r_i_glide_esite>
0.164881

> <r_i_glide_emodel>
-67.2624

> <r_i_glide_energy>
-33.1058

> <r_i_glide_einternal>
1.90498

> <i_i_glide_confnum>
1

> <i_i_glide_posenum>
392

$$$$
C05619
                    3D
 Structure written by MMmdl.
 24 24  0  0  1  0            999 V2000
    1.3192    2.3488    3.1265 C   0  0  0  0  0  0
    2.5527    3.0320    3.1339 C   0  0  0  0  0  0
    1.2933    0.9922    3.5191 C   0  0  0  0  0  0
    0.1094    3.0782    2.7057 C   0  0  0  0  0  0
    3.7460    2.3880    3.5173 C   0  0  0  0  0  0
    2.4737    0.3374    3.9201 C   0  0  0  0  0  0
    0.0370    4.3686    2.3324 C   0  0  0  0  0  0
    3.7032    1.0338    3.9355 C   0  0  0  0  0  0
    4.9000    3.1358    3.5015 O   0  0  0  0  0  0
    2.4041   -0.9771    4.2886 O   0  0  0  0  0  0
   -1.2741    5.0667    1.9022 C   0  0  0  0  0  0
    4.8318    0.4060    4.3863 O   0  0  0  0  0  0
    4.7532    4.5113    3.8261 C   0  0  0  0  0  0
   -1.1406    6.1374    1.2713 O   0  0  0  0  0  0
    2.5922    4.0692    2.8342 H   0  0  0  0  0  0
    0.3695    0.4345    3.5209 H   0  0  0  0  0  0
   -0.8071    2.5049    2.7012 H   0  0  0  0  0  0
    0.9230    4.9827    2.3199 H   0  0  0  0  0  0
    3.1978   -1.3136    4.6715 H   0  0  0  0  0  0
    4.6767   -0.4552    4.7383 H   0  0  0  0  0  0
    5.6680    4.8679    4.2992 H   0  0  0  0  0  0
    4.5946    5.1109    2.9299 H   0  0  0  0  0  0
    3.9305    4.6887    4.5211 H   0  0  0  0  0  0
   -2.3330    4.5026    2.2526 O   0  5  0  0  0  0
  1  2  1  0  0  0
  1  3  2  0  0  0
  1  4  1  0  0  0
  2  5  2  0  0  0
  2 15  1  0  0  0
  3  6  1  0  0  0
  3 16  1  0  0  0
  4  7  2  0  0  0
  4 17  1  0  0  0
  5  8  1  0  0  0
  5  9  1  0  0  0
  6 10  1  0  0  0
  6  8  2  0  0  0
  7 11  1  0  0  0
  7 18  1  0  0  0
  8 12  1  0  0  0
  9 13  1  0  0  0
 10 19  1  0  0  0
 11 14  2  0  0  0
 11 24  1  0  0  0
 12 20  1  0  0  0
 13 21  1  0  0  0
 13 22  1  0  0  0
 13 23  1  0  0  0
M  CHG  1  24  -1
M  END
> <i_ionizer_Ion_state_n>
4

> <i_ionizer_Tot_Q>
-1

> <s_ionizer_Ion_centers>
24

> <s_ionizer_Ion_types>
OM

> <s_ionizer_Ion_ctrs_in>
14

> <r_ionizer_Ionization_penalty>
0.00177657

> <r_ionizer_Ionization_penalty_charging>
0.00059219

> <r_ionizer_Ionization_penalty_neutral>
0.00118438

> <s_st_EZ_1>
1_4_7_11_E

> <i_mmod_Serial_Number-OPLS-2005>
760

> <i_i_glide_lignum>
751

> <r_i_docking_score>
-6.25635

> <r_i_glide_gscore>
-6.25635

> <r_i_glide_lipo>
-0.783304

> <r_i_glide_hbond>
-1.46756

> <r_i_glide_metal>
0

> <r_i_glide_eburp>
-2.20318

> <r_i_glide_evdw>
-17.0064

> <r_i_glide_ecoul>
-8.33291

> <r_i_glide_erotb>
0.865876

> <r_i_glide_esite>
-0.474371

> <r_i_glide_emodel>
-45.9946

> <r_i_glide_energy>
-25.3393

> <r_i_glide_einternal>
2.17247

> <i_i_glide_confnum>
4

> <i_i_glide_posenum>
833

$$$$
C00385
                    3D
 Structure written by MMmdl.
 16 17  0  0  1  0            999 V2000
    3.1715    0.3738    3.8572 C   0  0  0  0  0  0
    3.2368    1.6687    3.4958 C   0  0  0  0  0  0
    2.0949   -0.4352    3.4389 N   0  0  0  0  0  0
    2.1682    2.2677    2.6454 C   0  0  0  0  0  0
    4.3699    2.2031    4.0345 N   0  0  0  0  0  0
    1.0987    0.0694    2.6628 C   0  0  0  0  0  0
    4.9994    1.2298    4.7281 C   0  0  0  0  0  0
    1.1880    1.3887    2.3088 N   0  0  0  0  0  0
    2.1959    3.4455    2.2970 O   0  0  0  0  0  0
    0.1590   -0.6297    2.2955 O   0  0  0  0  0  0
    2.0678   -1.4041    3.7228 H   0  0  0  0  0  0
    4.6831    3.1607    3.9320 H   0  0  0  0  0  0
    5.9231    1.3366    5.2693 H   0  0  0  0  0  0
    0.4411    1.7485    1.7327 H   0  0  0  0  0  0
    4.2669    0.0991    4.6236 N   0  3  0  0  0  0
    4.4957   -0.7937    5.0430 H   0  0  0  0  0  0
  1  2  2  0  0  0
  1  3  1  0  0  0
  1 15  1  0  0  0
  2  4  1  0  0  0
  2  5  1  0  0  0
  3  6  1  0  0  0
  3 11  1  0  0  0
  4  8  1  0  0  0
  4  9  2  0  0  0
  5  7  1  0  0  0
  5 12  1  0  0  0
  6 10  2  0  0  0
  6  8  1  0  0  0
  7 13  1  0  0  0
  7 15  2  0  0  0
  8 14  1  0  0  0
 15 16  1  0  0  0
M  CHG  1  15   1
M  END
> <i_ionizer_Ion_state_n>
1

> <i_ionizer_Tot_Q>
1

> <s_ionizer_Ion_centers>
15

> <s_ionizer_Ion_types>
N4

> <s_ionizer_Ion_ctrs_in>
4

> <r_ionizer_Ionization_penalty>
0.41068

> <r_ionizer_Ionization_penalty_charging>
0.41068

> <r_ionizer_Ionization_penalty_neutral>
0

> <i_mmod_Serial_Number-OPLS-2005>
218

> <i_i_glide_lignum>
216

> <r_i_docking_score>
-6.25115

> <r_i_glide_gscore>
-6.25115

> <r_i_glide_lipo>
-0.16579

> <r_i_glide_hbond>
-0.669292

> <r_i_glide_metal>
0

> <r_i_glide_eburp>
-2.5

> <r_i_glide_evdw>
-16.9486

> <r_i_glide_ecoul>
-8.14754

> <r_i_glide_erotb>
0

> <r_i_glide_esite>
-0.745432

> <r_i_glide_emodel>
-39.6137

> <r_i_glide_energy>
-25.0961

> <r_i_glide_einternal>
0

> <i_i_glide_confnum>
1

> <i_i_glide_posenum>
605

$$$$
C05642
                    3D
 Structure written by MMmdl.
 35 35  0  0  1  0            999 V2000
    3.7853    1.7221    1.8154 C   0  0  0  0  0  0
    3.0917    0.5591    2.2664 C   0  0  0  0  0  0
    4.7840    1.5754    0.8216 C   0  0  0  0  0  0
    3.4753    3.1020    2.3220 C   0  0  0  0  0  0
    3.4223   -0.7007    1.7089 C   0  0  0  0  0  0
    2.0764    0.6715    3.2618 N   0  0  0  0  0  0
    5.1161    0.3218    0.2759 C   0  0  0  0  0  0
    2.1204    3.7118    1.9223 C   0  0  0  0  0  0
    4.2450    3.7611    3.0229 O   0  0  0  0  0  0
    4.4229   -0.8213    0.7298 C   0  0  0  0  0  0
    1.3012   -0.2975    3.7714 C   0  0  0  0  0  0
    6.1054    0.2945   -0.6827 O   0  0  0  0  0  0
    1.7477    4.9686    2.7295 C   0  0  0  0  0  0
    1.3388   -1.4566    3.3668 O   0  0  0  0  0  0
    6.5192   -0.9722   -1.1743 C   0  0  0  0  0  0
    0.5316    5.5746    2.2034 N   0  0  0  0  0  0
   -0.7031    5.1026    2.4245 C   0  0  0  0  0  0
   -1.8486    5.8796    1.7855 C   0  0  0  0  0  0
   -0.9359    4.1011    3.1001 O   0  0  0  0  0  0
    5.3172    2.4357    0.4467 H   0  0  0  0  0  0
    2.9117   -1.6009    2.0133 H   0  0  0  0  0  0
    1.9539    1.5945    3.6566 H   0  0  0  0  0  0
    2.1495    3.9630    0.8610 H   0  0  0  0  0  0
    1.3456    2.9560    2.0556 H   0  0  0  0  0  0
    4.6401   -1.8022    0.3352 H   0  0  0  0  0  0
    0.6343    0.0558    4.5703 H   0  0  0  0  0  0
    1.5924    4.7149    3.7799 H   0  0  0  0  0  0
    2.5578    5.6992    2.6888 H   0  0  0  0  0  0
    7.3033   -0.8309   -1.9181 H   0  0  0  0  0  0
    6.9288   -1.5948   -0.3777 H   0  0  0  0  0  0
    5.6966   -1.5001   -1.6587 H   0  0  0  0  0  0
    0.6332    6.4032    1.6357 H   0  0  0  0  0  0
   -2.8082    5.4190    2.0226 H   0  0  0  0  0  0
   -1.8636    6.9066    2.1513 H   0  0  0  0  0  0
   -1.7382    5.8988    0.7010 H   0  0  0  0  0  0
  1  2  1  0  0  0
  1  3  2  0  0  0
  1  4  1  0  0  0
  2  5  2  0  0  0
  2  6  1  0  0  0
  3  7  1  0  0  0
  3 20  1  0  0  0
  4  8  1  0  0  0
  4  9  2  0  0  0
  5 10  1  0  0  0
  5 21  1  0  0  0
  6 11  1  0  0  0
  6 22  1  0  0  0
  7 12  1  0  0  0
  7 10  2  0  0  0
  8 13  1  0  0  0
  8 23  1  0  0  0
  8 24  1  0  0  0
 10 25  1  0  0  0
 11 14  2  0  0  0
 11 26  1  0  0  0
 12 15  1  0  0  0
 13 16  1  0  0  0
 13 27  1  0  0  0
 13 28  1  0  0  0
 15 29  1  0  0  0
 15 30  1  0  0  0
 15 31  1  0  0  0
 16 17  1  0  0  0
 16 32  1  0  0  0
 17 18  1  0  0  0
 17 19  2  0  0  0
 18 33  1  0  0  0
 18 34  1  0  0  0
 18 35  1  0  0  0
M  END
> <i_ionizer_Ion_state_n>
0

> <i_ionizer_Tot_Q>
0

> <s_ionizer_Ion_centers>


> <s_ionizer_Ion_types>


> <s_ionizer_Ion_ctrs_in>


> <r_ionizer_Ionization_penalty>
0

> <r_ionizer_Ionization_penalty_charging>
0

> <r_ionizer_Ionization_penalty_neutral>
0

> <i_mmod_Serial_Number-OPLS-2005>
769

> <i_i_glide_lignum>
760

> <r_i_docking_score>
-6.25105

> <r_i_glide_gscore>
-6.25105

> <r_i_glide_lipo>
-0.917319

> <r_i_glide_hbond>
-0.973811

> <r_i_glide_metal>
0

> <r_i_glide_eburp>
-1.78573

> <r_i_glide_evdw>
-32.8716

> <r_i_glide_ecoul>
-5.65657

> <r_i_glide_erotb>
1.45418

> <r_i_glide_esite>
-0.832978

> <r_i_glide_emodel>
-57.6367

> <r_i_glide_energy>
-38.5282

> <r_i_glide_einternal>
1.74605

> <i_i_glide_confnum>
38

> <i_i_glide_posenum>
526

$$$$
C00275
                    3D
 Structure written by MMmdl.
 27 27  0  0  1  0            999 V2000
   -0.0608    4.7551    2.6701 P   0  0  0  0  0  0
    1.0022    3.3595    2.2931 O   0  0  0  0  0  0
   -1.4663    4.1154    2.7019 O   0  0  0  0  0  0
    2.3970    3.5673    2.4590 C   0  0  0  0  0  0
    3.1500    2.2289    2.5633 C   0  0  2  0  0  0
    3.1387    1.4320    1.2374 C   0  0  2  0  0  0
    2.4900    1.4606    3.5688 O   0  0  0  0  0  0
    3.7469    0.0392    1.4710 C   0  0  1  0  0  0
    3.9342    2.1000    0.2776 O   0  0  0  0  0  0
    3.1047    0.2475    3.8781 C   0  0  2  0  0  0
    3.0439   -0.6737    2.6430 C   0  0  1  0  0  0
    3.6582   -0.7543    0.3004 O   0  0  0  0  0  0
    2.4997   -0.3785    4.9855 O   0  0  0  0  0  0
    1.7074   -1.0258    2.3334 O   0  0  0  0  0  0
    2.5763    4.1741    3.3469 H   0  0  0  0  0  0
    2.7666    4.1439    1.6112 H   0  0  0  0  0  0
    4.1810    2.4001    2.8702 H   0  0  0  0  0  0
    2.1185    1.3421    0.8613 H   0  0  0  0  0  0
    4.8048    0.1464    1.7173 H   0  0  0  0  0  0
    3.5673    2.9616    0.1486 H   0  0  0  0  0  0
    4.1387    0.4458    4.1673 H   0  0  0  0  0  0
    3.5788   -1.5929    2.8863 H   0  0  0  0  0  0
    4.0838   -0.2939   -0.4062 H   0  0  0  0  0  0
    3.1421   -0.9522    5.3752 H   0  0  0  0  0  0
    1.2372   -0.2276    2.1435 H   0  0  0  0  0  0
    0.5003    5.2269    4.0303 O   0  5  0  0  0  0
    0.2219    5.6858    1.4704 O   0  5  0  0  0  0
  1  2  1  0  0  0
  1  3  2  0  0  0
  1 26  1  0  0  0
  1 27  1  0  0  0
  2  4  1  0  0  0
  4  5  1  0  0  0
  4 15  1  0  0  0
  4 16  1  0  0  0
  5  6  1  0  0  0
  5  7  1  0  0  0
  5 17  1  0  0  0
  6  8  1  0  0  0
  6  9  1  0  0  0
  6 18  1  0  0  0
  7 10  1  0  0  0
  8 11  1  0  0  0
  8 12  1  0  0  0
  8 19  1  0  0  0
  9 20  1  0  0  0
 10 13  1  0  0  0
 10 11  1  0  0  0
 10 21  1  0  0  0
 11 14  1  0  0  0
 11 22  1  0  0  0
 12 23  1  0  0  0
 13 24  1  0  0  0
 14 25  1  0  0  0
M  CHG  2  26  -1  27  -1
M  END
> <i_ionizer_Ion_state_n>
3

> <i_ionizer_Tot_Q>
-2

> <s_ionizer_Ion_centers>
26_27

> <s_ionizer_Ion_types>
OM_OM

> <s_ionizer_Ion_ctrs_in>
3_4

> <r_ionizer_Ionization_penalty>
1.49178e-05

> <r_ionizer_Ionization_penalty_charging>
1.49178e-05

> <r_ionizer_Ionization_penalty_neutral>
0

> <s_st_Chirality_1>
5_R_7_6_4_17

> <s_st_Chirality_2>
6_R_9_8_5_18

> <s_st_Chirality_3>
8_S_12_11_6_19

> <s_st_Chirality_4>
10_R_7_13_11_21

> <s_st_Chirality_5>
11_S_14_10_8_22

> <i_mmod_Serial_Number-OPLS-2005>
176

> <i_i_glide_lignum>
174

> <r_i_docking_score>
-6.25025

> <r_i_glide_gscore>
-6.25025

> <r_i_glide_lipo>
-0.43818

> <r_i_glide_hbond>
-1.64929

> <r_i_glide_metal>
0

> <r_i_glide_eburp>
-1.8324

> <r_i_glide_evdw>
-22.2815

> <r_i_glide_ecoul>
-11.5251

> <r_i_glide_erotb>
0.6058

> <r_i_glide_esite>
-0.00115622

> <r_i_glide_emodel>
-68.4435

> <r_i_glide_energy>
-33.8066

> <r_i_glide_einternal>
5.25312

> <i_i_glide_confnum>
6

> <i_i_glide_posenum>
691

$$$$
C01262
                    3D
 Structure written by MMmdl.
 33 33  0  0  1  0            999 V2000
    2.2620    1.8508    3.3045 C   0  0  0  0  0  0
    2.6085    3.2187    2.7874 C   0  0  0  0  0  0
    3.1569    1.0672    4.0283 N   0  0  0  0  0  0
    1.1098    1.1015    3.1843 C   0  0  0  0  0  0
    1.4219    4.0556    2.2525 C   0  0  2  0  0  0
    2.5047   -0.0709    4.3014 C   0  0  0  0  0  0
    4.5126    1.4046    4.4133 C   0  0  0  0  0  0
    1.2693   -0.1246    3.8241 N   0  0  0  0  0  0
    1.9612    5.2751    1.6511 N   0  0  0  0  0  0
    0.4945    4.4440    3.4187 C   0  0  0  0  0  0
    1.2337    6.2605    1.1028 C   0  0  0  0  0  0
   -0.6184    3.8750    3.4905 O   0  0  0  0  0  0
   -0.2830    6.1695    1.2896 C   0  0  0  0  0  0
    1.7260    7.1996    0.4778 O   0  0  0  0  0  0
   -1.0451    7.1475    0.3787 C   0  0  0  0  0  0
    3.1327    3.7767    3.5651 H   0  0  0  0  0  0
    3.3347    3.0937    1.9833 H   0  0  0  0  0  0
    0.1820    1.3495    2.6898 H   0  0  0  0  0  0
    0.8702    3.4836    1.5039 H   0  0  0  0  0  0
    2.9467   -0.8822    4.8611 H   0  0  0  0  0  0
    4.9990    0.5460    4.8774 H   0  0  0  0  0  0
    5.0834    1.7004    3.5328 H   0  0  0  0  0  0
    4.4966    2.2304    5.1249 H   0  0  0  0  0  0
    2.9587    5.4064    1.7293 H   0  0  0  0  0  0
   -0.6076    5.1480    1.0845 H   0  0  0  0  0  0
   -0.5138    6.3699    2.3365 H   0  0  0  0  0  0
   -0.5653    7.2173   -0.5986 H   0  0  0  0  0  0
   -2.0654    6.7985    0.2123 H   0  0  0  0  0  0
   -1.6078    9.1127    0.3473 H   0  0  0  0  0  0
   -1.5758    8.4563    1.8591 H   0  0  0  0  0  0
    0.9228    5.2998    4.2232 O   0  5  0  0  0  0
   -1.1023    8.4962    0.9677 N   0  3  0  0  0  0
   -0.1648    8.8482    1.0995 H   0  0  0  0  0  0
  1  2  1  0  0  0
  1  3  1  0  0  0
  1  4  2  0  0  0
  2  5  1  0  0  0
  2 16  1  0  0  0
  2 17  1  0  0  0
  3  6  1  0  0  0
  3  7  1  0  0  0
  4  8  1  0  0  0
  4 18  1  0  0  0
  5  9  1  0  0  0
  5 10  1  0  0  0
  5 19  1  0  0  0
  6  8  2  0  0  0
  6 20  1  0  0  0
  7 21  1  0  0  0
  7 22  1  0  0  0
  7 23  1  0  0  0
  9 11  1  0  0  0
  9 24  1  0  0  0
 10 12  2  0  0  0
 10 31  1  0  0  0
 11 13  1  0  0  0
 11 14  2  0  0  0
 13 15  1  0  0  0
 13 25  1  0  0  0
 13 26  1  0  0  0
 15 27  1  0  0  0
 15 28  1  0  0  0
 15 32  1  0  0  0
 29 32  1  0  0  0
 30 32  1  0  0  0
 32 33  1  0  0  0
M  CHG  2  31  -1  32   1
M  END
> <i_ionizer_Ion_state_n>
6

> <i_ionizer_Tot_Q>
0

> <s_ionizer_Ion_centers>
31_32

> <s_ionizer_Ion_types>
OM_N5

> <s_ionizer_Ion_ctrs_in>
12_17

> <r_ionizer_Ionization_penalty>
0.411459

> <r_ionizer_Ionization_penalty_charging>
0.000779521

> <r_ionizer_Ionization_penalty_neutral>
0.41068

> <s_st_Chirality_1>
5_S_9_10_2_19

> <i_mmod_Serial_Number-OPLS-2005>
435

> <i_i_glide_lignum>
431

> <r_i_docking_score>
-6.23998

> <r_i_glide_gscore>
-6.23998

> <r_i_glide_lipo>
-0.580711

> <r_i_glide_hbond>
-1.48046

> <r_i_glide_metal>
0

> <r_i_glide_eburp>
-2.3677

> <r_i_glide_evdw>
-26.414

> <r_i_glide_ecoul>
-12.5543

> <r_i_glide_erotb>
1.71247

> <r_i_glide_esite>
-0.155029

> <r_i_glide_emodel>
-90

> <r_i_glide_energy>
-38.9683

> <r_i_glide_einternal>
9.28491

> <i_i_glide_confnum>
11

> <i_i_glide_posenum>
375

$$$$
C05394
                    3D
 Structure written by MMmdl.
 22 22  0  0  1  0            999 V2000
    3.9400   -0.9508    1.2744 C   0  0  2  0  0  0
    2.6640   -0.2947    0.6993 C   0  0  1  0  0  0
    4.3315   -0.2711    2.4631 O   0  0  0  0  0  0
    5.1152   -0.9434    0.2836 C   0  0  0  0  0  0
    1.6020   -0.1280    1.7827 C   0  0  0  0  0  0
    2.9380    0.9540    0.0932 O   0  0  0  0  0  0
    3.4257   -0.4272    3.5094 C   0  0  2  0  0  0
    4.9005   -1.8980   -0.7348 O   0  0  0  0  0  0
    2.1139    0.3072    3.1626 C   0  0  2  0  0  0
    0.4074   -0.2902    1.5325 O   0  0  0  0  0  0
    3.9622    0.1004    4.7000 O   0  0  0  0  0  0
    1.1219    0.0666    4.1433 O   0  0  0  0  0  0
    3.7045   -1.9870    1.5232 H   0  0  0  0  0  0
    2.2588   -0.9446   -0.0769 H   0  0  0  0  0  0
    5.1952    0.0335   -0.1938 H   0  0  0  0  0  0
    6.0605   -1.1338    0.7924 H   0  0  0  0  0  0
    3.3944    0.7979   -0.7201 H   0  0  0  0  0  0
    3.2568   -1.4917    3.6806 H   0  0  0  0  0  0
    4.4202   -1.4889   -1.4382 H   0  0  0  0  0  0
    2.3203    1.3772    3.1230 H   0  0  0  0  0  0
    4.4352   -0.5915    5.1368 H   0  0  0  0  0  0
    1.0757   -0.8651    4.2962 H   0  0  0  0  0  0
  1  2  1  0  0  0
  1  3  1  0  0  0
  1  4  1  0  0  0
  1 13  1  0  0  0
  2  5  1  0  0  0
  2  6  1  0  0  0
  2 14  1  0  0  0
  3  7  1  0  0  0
  4  8  1  0  0  0
  4 15  1  0  0  0
  4 16  1  0  0  0
  5  9  1  0  0  0
  5 10  2  0  0  0
  6 17  1  0  0  0
  7 11  1  0  0  0
  7  9  1  0  0  0
  7 18  1  0  0  0
  8 19  1  0  0  0
  9 12  1  0  0  0
  9 20  1  0  0  0
 11 21  1  0  0  0
 12 22  1  0  0  0
M  END
> <i_ionizer_Ion_state_n>
0

> <i_ionizer_Tot_Q>
0

> <s_ionizer_Ion_centers>


> <s_ionizer_Ion_types>


> <s_ionizer_Ion_ctrs_in>


> <r_ionizer_Ionization_penalty>
0

> <r_ionizer_Ionization_penalty_charging>
0

> <r_ionizer_Ionization_penalty_neutral>
0

> <s_st_Chirality_1>
1_R_3_2_4_13

> <s_st_Chirality_2>
2_S_6_5_1_14

> <s_st_Chirality_3>
7_R_3_11_9_18

> <s_st_Chirality_4>
9_S_12_5_7_20

> <i_mmod_Serial_Number-OPLS-2005>
681

> <i_i_glide_lignum>
674

> <r_i_docking_score>
-6.23954

> <r_i_glide_gscore>
-6.23954

> <r_i_glide_lipo>
-0.408118

> <r_i_glide_hbond>
-1.16513

> <r_i_glide_metal>
0

> <r_i_glide_eburp>
-2.43831

> <r_i_glide_evdw>
-16.9764

> <r_i_glide_ecoul>
-12.7232

> <r_i_glide_erotb>
0.565095

> <r_i_glide_esite>
-0.162633

> <r_i_glide_emodel>
-39.0269

> <r_i_glide_energy>
-29.6997

> <r_i_glide_einternal>
2.68744

> <i_i_glide_confnum>
1

> <i_i_glide_posenum>
202

$$$$
C03090
                    3D
 Structure written by MMmdl.
 25 25  0  0  1  0            999 V2000
    0.9054    4.4579    2.9104 P   0  0  0  0  0  0
    1.3970    3.1970    1.7185 O   0  0  0  0  0  0
   -0.0091    3.6958    3.9001 O   0  0  0  0  0  0
    2.4238    2.2909    2.0983 C   0  0  0  0  0  0
    2.0574    0.8169    1.8214 C   0  0  2  0  0  0
    0.9159    0.3369    2.7275 C   0  0  2  0  0  0
    3.1408   -0.0609    2.1278 O   0  0  0  0  0  0
    1.6649   -0.1608    3.9584 C   0  0  2  0  0  0
    0.2025   -0.6995    2.0764 O   0  0  0  0  0  0
    2.9242   -0.7545    3.3143 C   0  0  2  0  0  0
    0.9006   -1.0980    4.6955 O   0  0  0  0  0  0
    2.5800    2.4128    3.1700 H   0  0  0  0  0  0
    3.3796    2.5584    1.6533 H   0  0  0  0  0  0
    1.8083    0.7140    0.7643 H   0  0  0  0  0  0
    0.2110    1.1325    2.9727 H   0  0  0  0  0  0
    1.9152    0.6934    4.5908 H   0  0  0  0  0  0
   -0.1300   -1.2826    2.7426 H   0  0  0  0  0  0
    2.8907   -1.8323    3.1509 H   0  0  0  0  0  0
    1.3813   -1.3503    5.4688 H   0  0  0  0  0  0
    3.9257   -0.6645    5.2299 H   0  0  0  0  0  0
    4.9664   -0.6153    3.9496 H   0  0  0  0  0  0
    2.2623    4.8984    3.5012 O   0  5  0  0  0  0
    0.1986    5.4854    2.0019 O   0  5  0  0  0  0
    4.0739   -0.2994    4.3019 N   0  3  0  0  0  0
    4.1194    0.7192    4.3365 H   0  0  0  0  0  0
  1  2  1  0  0  0
  1  3  2  0  0  0
  1 22  1  0  0  0
  1 23  1  0  0  0
  2  4  1  0  0  0
  4  5  1  0  0  0
  4 12  1  0  0  0
  4 13  1  0  0  0
  5  6  1  0  0  0
  5  7  1  0  0  0
  5 14  1  0  0  0
  6  8  1  0  0  0
  6  9  1  0  0  0
  6 15  1  0  0  0
  7 10  1  0  0  0
  8 11  1  0  0  0
  8 10  1  0  0  0
  8 16  1  0  0  0
  9 17  1  0  0  0
 10 18  1  0  0  0
 10 24  1  0  0  0
 11 19  1  0  0  0
 20 24  1  0  0  0
 21 24  1  0  0  0
 24 25  1  0  0  0
M  CHG  3  22  -1  23  -1  24   1
M  END
> <i_ionizer_Ion_state_n>
7

> <i_ionizer_Tot_Q>
-1

> <s_ionizer_Ion_centers>
22_23_24

> <s_ionizer_Ion_types>
OM_OM_N5

> <s_ionizer_Ion_ctrs_in>
3_4_14

> <r_ionizer_Ionization_penalty>
0.000202249

> <r_ionizer_Ionization_penalty_charging>
0.000202249

> <r_ionizer_Ionization_penalty_neutral>
0

> <s_st_Chirality_1>
5_R_7_6_4_14

> <s_st_Chirality_2>
6_R_9_8_5_15

> <s_st_Chirality_3>
8_R_11_10_6_16

> <s_st_Chirality_4>
10_R_7_24_8_18

> <i_mmod_Serial_Number-OPLS-2005>
523

> <i_i_glide_lignum>
517

> <r_i_docking_score>
-6.23539

> <r_i_glide_gscore>
-6.23539

> <r_i_glide_lipo>
-0.387463

> <r_i_glide_hbond>
-1.50406

> <r_i_glide_metal>
0

> <r_i_glide_eburp>
-2.0597

> <r_i_glide_evdw>
-18.7355

> <r_i_glide_ecoul>
-13.1925

> <r_i_glide_erotb>
0.748157

> <r_i_glide_esite>
-0.214229

> <r_i_glide_emodel>
-69.6377

> <r_i_glide_energy>
-31.928

> <r_i_glide_einternal>
5.97439

> <i_i_glide_confnum>
1

> <i_i_glide_posenum>
348

$$$$
C05589
                    3D
 Structure written by MMmdl.
 27 27  0  0  1  0            999 V2000
    3.1383    1.2055    3.1229 C   0  0  0  0  0  0
    3.1048    2.4419    2.4449 C   0  0  0  0  0  0
    4.3380    0.2833    2.9610 C   0  0  2  0  0  0
    2.0456    0.8336    3.9339 C   0  0  0  0  0  0
    2.0063    3.3156    2.5780 C   0  0  0  0  0  0
    5.4818    0.7057    3.9029 C   0  0  0  0  0  0
    4.8100    0.2680    1.6263 O   0  0  0  0  0  0
    0.9346    1.6877    4.0589 C   0  0  0  0  0  0
    0.9038    2.9231    3.3816 C   0  0  0  0  0  0
    2.0600    4.4979    1.8760 O   0  0  0  0  0  0
   -0.2132    3.7002    3.4990 O   0  0  0  0  0  0
    2.7004    4.4559    0.6083 C   0  0  0  0  0  0
    3.9343    2.7351    1.8180 H   0  0  0  0  0  0
    4.0217   -0.7324    3.2037 H   0  0  0  0  0  0
    2.0510   -0.1117    4.4568 H   0  0  0  0  0  0
    6.3957    0.1570    3.6710 H   0  0  0  0  0  0
    5.7041    1.7643    3.7628 H   0  0  0  0  0  0
    4.1318   -0.0615    1.0573 H   0  0  0  0  0  0
    0.0989    1.3843    4.6725 H   0  0  0  0  0  0
    5.9092    0.8187    5.8993 H   0  0  0  0  0  0
    4.3103    1.0219    5.5547 H   0  0  0  0  0  0
   -0.2059    4.4529    2.9282 H   0  0  0  0  0  0
    2.2488    5.2012   -0.0462 H   0  0  0  0  0  0
    3.7592    4.6992    0.6966 H   0  0  0  0  0  0
    2.5975    3.4839    0.1227 H   0  0  0  0  0  0
    5.1434    0.4999    5.3229 N   0  3  0  0  0  0
    4.9872   -0.4833    5.4923 H   0  0  0  0  0  0
  1  2  1  0  0  0
  1  3  1  0  0  0
  1  4  2  0  0  0
  2  5  2  0  0  0
  2 13  1  0  0  0
  3  6  1  0  0  0
  3  7  1  0  0  0
  3 14  1  0  0  0
  4  8  1  0  0  0
  4 15  1  0  0  0
  5  9  1  0  0  0
  5 10  1  0  0  0
  6 16  1  0  0  0
  6 17  1  0  0  0
  6 26  1  0  0  0
  7 18  1  0  0  0
  8  9  2  0  0  0
  8 19  1  0  0  0
  9 11  1  0  0  0
 10 12  1  0  0  0
 11 22  1  0  0  0
 12 23  1  0  0  0
 12 24  1  0  0  0
 12 25  1  0  0  0
 20 26  1  0  0  0
 21 26  1  0  0  0
 26 27  1  0  0  0
M  CHG  1  26   1
M  END
> <i_ionizer_Ion_state_n>
1

> <i_ionizer_Tot_Q>
1

> <s_ionizer_Ion_centers>
26

> <s_ionizer_Ion_types>
N5

> <s_ionizer_Ion_ctrs_in>
11

> <r_ionizer_Ionization_penalty>
0.000779521

> <r_ionizer_Ionization_penalty_charging>
0.000187331

> <r_ionizer_Ionization_penalty_neutral>
0.00059219

> <s_st_Chirality_1>
3_R_7_6_1_14

> <i_mmod_Serial_Number-OPLS-2005>
756

> <i_i_glide_lignum>
747

> <r_i_docking_score>
-6.21402

> <r_i_glide_gscore>
-6.21402

> <r_i_glide_lipo>
-0.788941

> <r_i_glide_hbond>
-1

> <r_i_glide_metal>
0

> <r_i_glide_eburp>
-2.3923

> <r_i_glide_evdw>
-19.2456

> <r_i_glide_ecoul>
-8.97285

> <r_i_glide_erotb>
0.534785

> <r_i_glide_esite>
-0.130631

> <r_i_glide_emodel>
-42.4473

> <r_i_glide_energy>
-28.2185

> <r_i_glide_einternal>
1.20058

> <i_i_glide_confnum>
2

> <i_i_glide_posenum>
205

$$$$
C00124
                    3D
 Structure written by MMmdl.
 24 24  0  0  1  0            999 V2000
    4.1109    1.4539    4.6997 C   0  0  2  0  0  0
    3.1888    0.2243    4.5693 C   0  0  1  0  0  0
    4.0909    2.1505    3.4434 O   0  0  0  0  0  0
    5.5738    1.0983    5.0136 C   0  0  0  0  0  0
    1.7711    0.6875    4.1928 C   0  0  1  0  0  0
    3.7001   -0.6976    3.6082 O   0  0  0  0  0  0
    2.8389    2.6816    3.0699 C   0  0  2  0  0  0
    5.7005    0.5001    6.2986 O   0  0  0  0  0  0
    1.7940    1.5553    2.9202 C   0  0  2  0  0  0
    0.9061   -0.4344    4.0389 O   0  0  0  0  0  0
    3.0177    3.3452    1.8371 O   0  0  0  0  0  0
    0.5196    2.1583    2.7161 O   0  0  0  0  0  0
    3.7301    2.1125    5.4827 H   0  0  0  0  0  0
    3.1469   -0.2865    5.5322 H   0  0  0  0  0  0
    5.9532    0.3973    4.2696 H   0  0  0  0  0  0
    6.2071    1.9850    4.9674 H   0  0  0  0  0  0
    1.3872    1.2927    5.0158 H   0  0  0  0  0  0
    4.2046   -1.3735    4.0827 H   0  0  0  0  0  0
    2.5620    3.3905    3.8622 H   0  0  0  0  0  0
    5.4672   -0.4357    6.2276 H   0  0  0  0  0  0
    2.0478    0.9433    2.0531 H   0  0  0  0  0  0
    0.7415   -0.8075    4.9166 H   0  0  0  0  0  0
    3.1588    2.6688    1.1606 H   0  0  0  0  0  0
    0.4401    2.3752    1.7763 H   0  0  0  0  0  0
  1  2  1  0  0  0
  1  3  1  0  0  0
  1  4  1  0  0  0
  1 13  1  0  0  0
  2  5  1  0  0  0
  2  6  1  0  0  0
  2 14  1  0  0  0
  3  7  1  0  0  0
  4  8  1  0  0  0
  4 15  1  0  0  0
  4 16  1  0  0  0
  5  9  1  0  0  0
  5 10  1  0  0  0
  5 17  1  0  0  0
  6 18  1  0  0  0
  7 11  1  0  0  0
  7  9  1  0  0  0
  7 19  1  0  0  0
  8 20  1  0  0  0
  9 12  1  0  0  0
  9 21  1  0  0  0
 10 22  1  0  0  0
 11 23  1  0  0  0
 12 24  1  0  0  0
M  END
> <i_ionizer_Ion_state_n>
0

> <i_ionizer_Tot_Q>
0

> <s_ionizer_Ion_centers>


> <s_ionizer_Ion_types>


> <s_ionizer_Ion_ctrs_in>


> <r_ionizer_Ionization_penalty>
0

> <r_ionizer_Ionization_penalty_charging>
0

> <r_ionizer_Ionization_penalty_neutral>
0

> <s_st_Chirality_1>
1_R_3_2_4_13

> <s_st_Chirality_2>
2_S_6_5_1_14

> <s_st_Chirality_3>
5_S_10_9_2_17

> <s_st_Chirality_4>
9_R_12_7_5_21

> <s_st_Chirality_5>
7_R_3_11_9_19

> <i_mmod_Serial_Number-OPLS-2005>
90

> <i_i_glide_lignum>
89

> <r_i_docking_score>
-6.21367

> <r_i_glide_gscore>
-6.21367

> <r_i_glide_lipo>
-0.49722

> <r_i_glide_hbond>
-1.17653

> <r_i_glide_metal>
0

> <r_i_glide_eburp>
-2.42304

> <r_i_glide_evdw>
-19.1268

> <r_i_glide_ecoul>
-9.89732

> <r_i_glide_erotb>
0.554751

> <r_i_glide_esite>
-0.151762

> <r_i_glide_emodel>
-38.1158

> <r_i_glide_energy>
-29.0241

> <r_i_glide_einternal>
0.455004

> <i_i_glide_confnum>
1

> <i_i_glide_posenum>
70

$$$$
C04468
                    3D
 Structure written by MMmdl.
 28 30  0  0  1  0            999 V2000
    3.2963    4.7217    1.2020 C   0  0  0  0  0  0
    3.9677    3.5282    1.5105 C   0  0  0  0  0  0
    1.9640    2.6736    2.6392 C   0  0  0  0  0  0
    3.3097    2.5049    2.2189 C   0  0  0  0  0  0
    4.0483    1.2843    2.5570 C   0  0  0  0  0  0
    3.5678    0.3860    3.4265 C   0  0  0  0  0  0
    2.2436    0.5722    4.1357 C   0  0  1  0  0  0
    1.2690    1.5268    3.3882 C   0  0  2  0  0  0
    1.9567    4.8997    1.5947 C   0  0  0  0  0  0
    1.2757    3.8771    2.3103 C   0  0  0  0  0  0
   -0.0804    4.0933    2.6635 C   0  0  0  0  0  0
   -0.7318    5.2955    2.3274 C   0  0  0  0  0  0
   -0.0424    6.3022    1.6298 C   0  0  0  0  0  0
    1.2999    6.1030    1.2625 C   0  0  0  0  0  0
    0.4899    0.7677    2.4787 O   0  0  0  0  0  0
    1.6404   -0.6767    4.4078 O   0  0  0  0  0  0
    3.8149    5.4982    0.6584 H   0  0  0  0  0  0
    4.9962    3.4034    1.2041 H   0  0  0  0  0  0
    5.0023    1.1185    2.0777 H   0  0  0  0  0  0
    4.1411   -0.4980    3.6652 H   0  0  0  0  0  0
    2.5003    1.0193    5.0968 H   0  0  0  0  0  0
    0.5948    1.9283    4.1437 H   0  0  0  0  0  0
   -0.6564    3.3503    3.1913 H   0  0  0  0  0  0
   -1.7649    5.4443    2.6053 H   0  0  0  0  0  0
   -0.5435    7.2238    1.3727 H   0  0  0  0  0  0
    1.8221    6.8783    0.7208 H   0  0  0  0  0  0
    1.0685    0.3854    1.8367 H   0  0  0  0  0  0
    2.2540   -1.1775    4.9261 H   0  0  0  0  0  0
  1  9  1  0  0  0
  1  2  2  0  0  0
  1 17  1  0  0  0
  2  4  1  0  0  0
  2 18  1  0  0  0
  3 10  1  0  0  0
  3  4  2  0  0  0
  3  8  1  0  0  0
  4  5  1  0  0  0
  5  6  2  0  0  0
  5 19  1  0  0  0
  6  7  1  0  0  0
  6 20  1  0  0  0
  7  8  1  0  0  0
  7 16  1  0  0  0
  7 21  1  0  0  0
  8 15  1  0  0  0
  8 22  1  0  0  0
  9 10  2  0  0  0
  9 14  1  0  0  0
 10 11  1  0  0  0
 11 12  2  0  0  0
 11 23  1  0  0  0
 12 13  1  0  0  0
 12 24  1  0  0  0
 13 14  2  0  0  0
 13 25  1  0  0  0
 14 26  1  0  0  0
 15 27  1  0  0  0
 16 28  1  0  0  0
M  END
> <i_ionizer_Ion_state_n>
0

> <i_ionizer_Tot_Q>
0

> <s_ionizer_Ion_centers>


> <s_ionizer_Ion_types>


> <s_ionizer_Ion_ctrs_in>


> <r_ionizer_Ionization_penalty>
0

> <r_ionizer_Ionization_penalty_charging>
0

> <r_ionizer_Ionization_penalty_neutral>
0

> <s_st_Chirality_1>
7_S_16_8_6_21

> <s_st_Chirality_2>
8_R_15_7_3_22

> <s_st_EZ_1>
4_5_6_7_Z

> <i_mmod_Serial_Number-OPLS-2005>
600

> <i_i_glide_lignum>
594

> <r_i_docking_score>
-6.21186

> <r_i_glide_gscore>
-6.21186

> <r_i_glide_lipo>
-1.26096

> <r_i_glide_hbond>
0

> <r_i_glide_metal>
0

> <r_i_glide_eburp>
-2.17992

> <r_i_glide_evdw>
-28.6839

> <r_i_glide_ecoul>
-1.72265

> <r_i_glide_erotb>
0

> <r_i_glide_esite>
-0.304004

> <r_i_glide_emodel>
-38.5821

> <r_i_glide_energy>
-30.4066

> <r_i_glide_einternal>
0.359988

> <i_i_glide_confnum>
1

> <i_i_glide_posenum>
128

$$$$
C00668
                    3D
 Structure written by MMmdl.
 27 27  0  0  1  0            999 V2000
   -0.0696    4.3721    2.7749 P   0  0  0  0  0  0
    0.6117    2.7843    2.2993 O   0  0  0  0  0  0
   -1.5885    4.0992    2.6945 O   0  0  0  0  0  0
    1.0110    1.9473    3.3719 C   0  0  0  0  0  0
    2.0654    0.9342    2.8921 C   0  0  2  0  0  0
    3.2319    0.7861    3.8981 C   0  0  2  0  0  0
    2.5789    1.4061    1.6454 O   0  0  0  0  0  0
    4.3791   -0.0468    3.2967 C   0  0  1  0  0  0
    2.7709    0.1155    5.0556 O   0  0  0  0  0  0
    3.5285    0.5955    1.0219 C   0  0  1  0  0  0
    4.7768    0.5257    1.9237 C   0  0  2  0  0  0
    5.5008    0.0565    4.1541 O   0  0  0  0  0  0
    3.0422   -0.6976    0.7253 O   0  0  0  0  0  0
    5.7967   -0.2542    1.3262 O   0  0  0  0  0  0
    0.1175    1.4297    3.7203 H   0  0  0  0  0  0
    1.3880    2.5213    4.2195 H   0  0  0  0  0  0
    1.5801   -0.0326    2.7478 H   0  0  0  0  0  0
    3.5979    1.7759    4.1765 H   0  0  0  0  0  0
    4.0888   -1.0948    3.2033 H   0  0  0  0  0  0
    3.4487   -0.4840    5.3299 H   0  0  0  0  0  0
    3.7711    1.0659    0.0685 H   0  0  0  0  0  0
    5.1527    1.5436    2.0418 H   0  0  0  0  0  0
    5.3583   -0.5264    4.8851 H   0  0  0  0  0  0
    3.0021   -1.1804    1.5370 H   0  0  0  0  0  0
    5.4548   -1.1206    1.1641 H   0  0  0  0  0  0
    0.5049    4.5764    4.1943 O   0  5  0  0  0  0
    0.5053    5.2950    1.6778 O   0  5  0  0  0  0
  1  2  1  0  0  0
  1  3  2  0  0  0
  1 26  1  0  0  0
  1 27  1  0  0  0
  2  4  1  0  0  0
  4  5  1  0  0  0
  4 15  1  0  0  0
  4 16  1  0  0  0
  5  6  1  0  0  0
  5  7  1  0  0  0
  5 17  1  0  0  0
  6  8  1  0  0  0
  6  9  1  0  0  0
  6 18  1  0  0  0
  7 10  1  0  0  0
  8 11  1  0  0  0
  8 12  1  0  0  0
  8 19  1  0  0  0
  9 20  1  0  0  0
 10 13  1  0  0  0
 10 11  1  0  0  0
 10 21  1  0  0  0
 11 14  1  0  0  0
 11 22  1  0  0  0
 12 23  1  0  0  0
 13 24  1  0  0  0
 14 25  1  0  0  0
M  CHG  2  26  -1  27  -1
M  END
> <i_ionizer_Ion_state_n>
3

> <i_ionizer_Tot_Q>
-2

> <s_ionizer_Ion_centers>
26_27

> <s_ionizer_Ion_types>
OM_OM

> <s_ionizer_Ion_ctrs_in>
3_4

> <r_ionizer_Ionization_penalty>
1.49178e-05

> <r_ionizer_Ionization_penalty_charging>
1.49178e-05

> <r_ionizer_Ionization_penalty_neutral>
0

> <s_st_Chirality_1>
5_R_7_6_4_17

> <s_st_Chirality_2>
6_R_9_8_5_18

> <s_st_Chirality_3>
8_S_12_11_6_19

> <s_st_Chirality_4>
10_S_7_13_11_21

> <s_st_Chirality_5>
11_R_14_10_8_22

> <i_mmod_Serial_Number-OPLS-2005>
313

> <i_i_glide_lignum>
311

> <r_i_docking_score>
-6.20956

> <r_i_glide_gscore>
-6.20956

> <r_i_glide_lipo>
-0.467493

> <r_i_glide_hbond>
-1.94749

> <r_i_glide_metal>
0

> <r_i_glide_eburp>
-1.8324

> <r_i_glide_evdw>
-16.6855

> <r_i_glide_ecoul>
-11.4468

> <r_i_glide_erotb>
0.6058

> <r_i_glide_esite>
-0.0884576

> <r_i_glide_emodel>
-60.4647

> <r_i_glide_energy>
-28.1323

> <r_i_glide_einternal>
8.54678

> <i_i_glide_confnum>
8

> <i_i_glide_posenum>
624

$$$$
C05587
                    3D
 Structure written by MMmdl.
 26 26  0  0  1  0            999 V2000
    2.0435    0.9057    3.7397 C   0  0  0  0  0  0
    3.2364    0.2916    4.1734 C   0  0  0  0  0  0
    2.0560    2.2882    3.4159 C   0  0  0  0  0  0
    0.9162    0.1179    3.6941 O   0  0  0  0  0  0
    4.4390    1.0225    4.2567 C   0  0  0  0  0  0
    3.2594    3.0177    3.4983 C   0  0  0  0  0  0
    0.9195    2.9509    3.0492 O   0  0  0  0  0  0
    0.8919   -1.0084    4.5600 C   0  0  0  0  0  0
    4.4477    2.3887    3.9132 C   0  0  0  0  0  0
    5.7134    0.3429    4.7198 C   0  0  0  0  0  0
    5.8451    0.3452    6.2494 C   0  0  0  0  0  0
    3.2247   -0.7560    4.4370 H   0  0  0  0  0  0
    3.2743    4.0693    3.2516 H   0  0  0  0  0  0
    1.0879    3.8008    2.6724 H   0  0  0  0  0  0
   -0.1390   -1.2207    4.8427 H   0  0  0  0  0  0
    1.2813   -1.8950    4.0597 H   0  0  0  0  0  0
    1.4580   -0.8394    5.4776 H   0  0  0  0  0  0
    5.3617    2.9612    3.9750 H   0  0  0  0  0  0
    5.7249   -0.6806    4.3422 H   0  0  0  0  0  0
    6.5689    0.8464    4.2672 H   0  0  0  0  0  0
    6.0734    1.3495    6.6084 H   0  0  0  0  0  0
    4.9040    0.0446    6.7114 H   0  0  0  0  0  0
    6.9677   -0.5465    7.7078 H   0  0  0  0  0  0
    6.6921   -1.5117    6.4005 H   0  0  0  0  0  0
    6.9067   -0.5711    6.6998 N   0  3  0  0  0  0
    7.7913   -0.2860    6.3040 H   0  0  0  0  0  0
  1  2  2  0  0  0
  1  3  1  0  0  0
  1  4  1  0  0  0
  2  5  1  0  0  0
  2 12  1  0  0  0
  3  6  2  0  0  0
  3  7  1  0  0  0
  4  8  1  0  0  0
  5  9  2  0  0  0
  5 10  1  0  0  0
  6  9  1  0  0  0
  6 13  1  0  0  0
  7 14  1  0  0  0
  8 15  1  0  0  0
  8 16  1  0  0  0
  8 17  1  0  0  0
  9 18  1  0  0  0
 10 11  1  0  0  0
 10 19  1  0  0  0
 10 20  1  0  0  0
 11 21  1  0  0  0
 11 22  1  0  0  0
 11 25  1  0  0  0
 23 25  1  0  0  0
 24 25  1  0  0  0
 25 26  1  0  0  0
M  CHG  1  25   1
M  END
> <i_ionizer_Ion_state_n>
2

> <i_ionizer_Tot_Q>
1

> <s_ionizer_Ion_centers>
25

> <s_ionizer_Ion_types>
N5

> <s_ionizer_Ion_ctrs_in>
12

> <r_ionizer_Ionization_penalty>
0.000779521

> <r_ionizer_Ionization_penalty_charging>
0.000187331

> <r_ionizer_Ionization_penalty_neutral>
0.00059219

> <i_mmod_Serial_Number-OPLS-2005>
754

> <i_i_glide_lignum>
745

> <r_i_docking_score>
-6.20778

> <r_i_glide_gscore>
-6.20778

> <r_i_glide_lipo>
-0.913799

> <r_i_glide_hbond>
-0.738131

> <r_i_glide_metal>
0

> <r_i_glide_eburp>
-2.5

> <r_i_glide_evdw>
-20.3033

> <r_i_glide_ecoul>
-8.44601

> <r_i_glide_erotb>
0.620583

> <r_i_glide_esite>
-0.207568

> <r_i_glide_emodel>
-47.1093

> <r_i_glide_energy>
-28.7493

> <r_i_glide_einternal>
1.73711

> <i_i_glide_confnum>
1

> <i_i_glide_posenum>
17

$$$$
C00092
                    3D
 Structure written by MMmdl.
 27 27  0  0  1  0            999 V2000
   -0.1715    4.7334    3.0989 P   0  0  0  0  0  0
    1.0730    4.6507    1.8046 O   0  0  0  0  0  0
   -1.4939    4.7754    2.3001 O   0  0  0  0  0  0
    2.3473    4.1228    2.1513 C   0  0  0  0  0  0
    2.2585    2.7024    2.7447 C   0  0  2  0  0  0
    3.6210    2.1274    3.1887 C   0  0  2  0  0  0
    1.7632    1.8437    1.7251 O   0  0  0  0  0  0
    3.4548    0.6602    3.6294 C   0  0  1  0  0  0
    4.1063    2.8597    4.2978 O   0  0  0  0  0  0
    1.4231    0.5704    2.1637 C   0  0  2  0  0  0
    2.7209   -0.1658    2.5526 C   0  0  2  0  0  0
    4.7426    0.0999    3.8069 O   0  0  0  0  0  0
    0.7617   -0.1314    1.1386 O   0  0  0  0  0  0
    2.4277   -1.4372    3.0996 O   0  0  0  0  0  0
    2.7572    4.8083    2.8924 H   0  0  0  0  0  0
    3.0299    4.1566    1.3017 H   0  0  0  0  0  0
    1.5744    2.7182    3.5956 H   0  0  0  0  0  0
    4.3345    2.1981    2.3661 H   0  0  0  0  0  0
    2.9033    0.6135    4.5706 H   0  0  0  0  0  0
    4.9220    2.4653    4.5681 H   0  0  0  0  0  0
    0.7241    0.6458    2.9994 H   0  0  0  0  0  0
    3.3366   -0.2774    1.6582 H   0  0  0  0  0  0
    4.6468   -0.6720    4.3450 H   0  0  0  0  0  0
    1.3824   -0.2421    0.4327 H   0  0  0  0  0  0
    3.2152   -1.7612    3.5112 H   0  0  0  0  0  0
    0.1008    3.4408    3.9021 O   0  5  0  0  0  0
    0.2172    6.0492    3.8081 O   0  5  0  0  0  0
  1  2  1  0  0  0
  1  3  2  0  0  0
  1 26  1  0  0  0
  1 27  1  0  0  0
  2  4  1  0  0  0
  4  5  1  0  0  0
  4 15  1  0  0  0
  4 16  1  0  0  0
  5  6  1  0  0  0
  5  7  1  0  0  0
  5 17  1  0  0  0
  6  8  1  0  0  0
  6  9  1  0  0  0
  6 18  1  0  0  0
  7 10  1  0  0  0
  8 11  1  0  0  0
  8 12  1  0  0  0
  8 19  1  0  0  0
  9 20  1  0  0  0
 10 13  1  0  0  0
 10 11  1  0  0  0
 10 21  1  0  0  0
 11 14  1  0  0  0
 11 22  1  0  0  0
 12 23  1  0  0  0
 13 24  1  0  0  0
 14 25  1  0  0  0
M  CHG  2  26  -1  27  -1
M  END
> <i_ionizer_Ion_state_n>
3

> <i_ionizer_Tot_Q>
-2

> <s_ionizer_Ion_centers>
26_27

> <s_ionizer_Ion_types>
OM_OM

> <s_ionizer_Ion_ctrs_in>
3_4

> <r_ionizer_Ionization_penalty>
1.49178e-05

> <r_ionizer_Ionization_penalty_charging>
1.49178e-05

> <r_ionizer_Ionization_penalty_neutral>
0

> <s_st_Chirality_1>
5_R_7_6_4_17

> <s_st_Chirality_2>
6_R_9_8_5_18

> <s_st_Chirality_3>
8_S_12_11_6_19

> <s_st_Chirality_4>
11_R_14_10_8_22

> <s_st_Chirality_5>
10_R_7_13_11_21

> <i_mmod_Serial_Number-OPLS-2005>
64

> <i_i_glide_lignum>
63

> <r_i_docking_score>
-6.20728

> <r_i_glide_gscore>
-6.20728

> <r_i_glide_lipo>
-0.436603

> <r_i_glide_hbond>
-1.70366

> <r_i_glide_metal>
0

> <r_i_glide_eburp>
-2.2324

> <r_i_glide_evdw>
-21.5518

> <r_i_glide_ecoul>
-7.1779

> <r_i_glide_erotb>
0.6058

> <r_i_glide_esite>
0.00151846

> <r_i_glide_emodel>
-63.8782

> <r_i_glide_energy>
-28.7297

> <r_i_glide_einternal>
5.29206

> <i_i_glide_confnum>
3

> <i_i_glide_posenum>
368

$$$$
C02835
                    3D
 Structure written by MMmdl.
 14 14  0  0  1  0            999 V2000
    1.7581    1.4927    3.2104 C   0  0  0  0  0  0
    2.8108    1.1893    4.0491 C   0  0  0  0  0  0
    0.9012    0.3911    3.1131 N   0  0  0  0  0  0
    1.4924    2.7620    2.4512 C   0  0  0  0  0  0
    2.5850   -0.1070    4.4778 N   0  0  0  0  0  0
    1.4558   -0.5234    3.8991 C   0  0  0  0  0  0
    0.2764    3.4545    3.0705 C   0  0  0  0  0  0
    0.0985    3.3059    4.3001 O   0  0  0  0  0  0
    3.6629    1.7730    4.3656 H   0  0  0  0  0  0
    2.3537    3.4288    2.4975 H   0  0  0  0  0  0
    1.3028    2.5604    1.3961 H   0  0  0  0  0  0
    3.1648   -0.6394    5.1103 H   0  0  0  0  0  0
    1.0362   -1.5067    4.0529 H   0  0  0  0  0  0
   -0.4469    4.1335    2.3087 O   0  5  0  0  0  0
  1  2  2  0  0  0
  1  3  1  0  0  0
  1  4  1  0  0  0
  2  5  1  0  0  0
  2  9  1  0  0  0
  3  6  2  0  0  0
  4  7  1  0  0  0
  4 10  1  0  0  0
  4 11  1  0  0  0
  5  6  1  0  0  0
  5 12  1  0  0  0
  6 13  1  0  0  0
  7  8  2  0  0  0
  7 14  1  0  0  0
M  CHG  1  14  -1
M  END
> <i_ionizer_Ion_state_n>
2

> <i_ionizer_Tot_Q>
-1

> <s_ionizer_Ion_centers>
14

> <s_ionizer_Ion_types>
OM

> <s_ionizer_Ion_ctrs_in>
8

> <r_ionizer_Ionization_penalty>
0.411272

> <r_ionizer_Ionization_penalty_charging>
0.00059219

> <r_ionizer_Ionization_penalty_neutral>
0.41068

> <i_mmod_Serial_Number-OPLS-2005>
511

> <i_i_glide_lignum>
505

> <r_i_docking_score>
-6.20646

> <r_i_glide_gscore>
-6.20646

> <r_i_glide_lipo>
-0.238541

> <r_i_glide_hbond>
-0.866163

> <r_i_glide_metal>
0

> <r_i_glide_eburp>
-2.5

> <r_i_glide_evdw>
-14.6857

> <r_i_glide_ecoul>
-7.67718

> <r_i_glide_erotb>
0

> <r_i_glide_esite>
-0.659182

> <r_i_glide_emodel>
-45.2798

> <r_i_glide_energy>
-22.3628

> <r_i_glide_einternal>
0.567753

> <i_i_glide_confnum>
1

> <i_i_glide_posenum>
144

$$$$
C00962
                    3D
 Structure written by MMmdl.
 24 24  0  0  1  0            999 V2000
    4.1104    1.4505    4.6922 C   0  0  2  0  0  0
    3.1863    0.2222    4.5626 C   0  0  1  0  0  0
    4.0907    2.1470    3.4359 O   0  0  0  0  0  0
    5.5729    1.0927    5.0052 C   0  0  0  0  0  0
    1.7691    0.6876    4.1869 C   0  0  1  0  0  0
    3.6956   -0.7005    3.6012 O   0  0  0  0  0  0
    2.8392    2.6799    3.0631 C   0  0  2  0  0  0
    5.7004    0.5000    6.2928 O   0  0  0  0  0  0
    1.7925    1.5552    2.9142 C   0  0  2  0  0  0
    0.9023   -0.4331    4.0337 O   0  0  0  0  0  0
    3.0182    3.3431    1.8301 O   0  0  0  0  0  0
    0.5189    2.1601    2.7108 O   0  0  0  0  0  0
    3.7311    2.1097    5.4754 H   0  0  0  0  0  0
    3.1443   -0.2884    5.5256 H   0  0  0  0  0  0
    5.9493    0.3873    4.2639 H   0  0  0  0  0  0
    6.2083    1.9775    4.9538 H   0  0  0  0  0  0
    1.3866    1.2934    5.0101 H   0  0  0  0  0  0
    4.2113   -1.3691    4.0741 H   0  0  0  0  0  0
    2.5638    3.3893    3.8555 H   0  0  0  0  0  0
    5.4615   -0.4347    6.2271 H   0  0  0  0  0  0
    2.0448    0.9427    2.0470 H   0  0  0  0  0  0
    0.7407   -0.8081    4.9111 H   0  0  0  0  0  0
    3.1730    2.6671    1.1562 H   0  0  0  0  0  0
    0.4489    2.3991    1.7756 H   0  0  0  0  0  0
  1  2  1  0  0  0
  1  3  1  0  0  0
  1  4  1  0  0  0
  1 13  1  0  0  0
  2  5  1  0  0  0
  2  6  1  0  0  0
  2 14  1  0  0  0
  3  7  1  0  0  0
  4  8  1  0  0  0
  4 15  1  0  0  0
  4 16  1  0  0  0
  5  9  1  0  0  0
  5 10  1  0  0  0
  5 17  1  0  0  0
  6 18  1  0  0  0
  7 11  1  0  0  0
  7  9  1  0  0  0
  7 19  1  0  0  0
  8 20  1  0  0  0
  9 12  1  0  0  0
  9 21  1  0  0  0
 10 22  1  0  0  0
 11 23  1  0  0  0
 12 24  1  0  0  0
M  END
> <i_ionizer_Ion_state_n>
0

> <i_ionizer_Tot_Q>
0

> <s_ionizer_Ion_centers>


> <s_ionizer_Ion_types>


> <s_ionizer_Ion_ctrs_in>


> <r_ionizer_Ionization_penalty>
0

> <r_ionizer_Ionization_penalty_charging>
0

> <r_ionizer_Ionization_penalty_neutral>
0

> <s_st_Chirality_1>
1_R_3_2_4_13

> <s_st_Chirality_2>
2_S_6_5_1_14

> <s_st_Chirality_3>
5_S_10_9_2_17

> <s_st_Chirality_4>
7_R_3_11_9_19

> <s_st_Chirality_5>
9_R_12_7_5_21

> <i_mmod_Serial_Number-OPLS-2005>
367

> <i_i_glide_lignum>
363

> <r_i_docking_score>
-6.20441

> <r_i_glide_gscore>
-6.20441

> <r_i_glide_lipo>
-0.497064

> <r_i_glide_hbond>
-1.16772

> <r_i_glide_metal>
0

> <r_i_glide_eburp>
-2.42304

> <r_i_glide_evdw>
-19.1706

> <r_i_glide_ecoul>
-9.86944

> <r_i_glide_erotb>
0.554751

> <r_i_glide_esite>
-0.150745

> <r_i_glide_emodel>
-38.0959

> <r_i_glide_energy>
-29.0401

> <r_i_glide_einternal>
0.46011

> <i_i_glide_confnum>
1

> <i_i_glide_posenum>
79

$$$$
C02835
                    3D
 Structure written by MMmdl.
 15 15  0  0  1  0            999 V2000
    3.1960    1.8410    3.7664 C   0  0  0  0  0  0
    3.0073    0.5297    4.1283 C   0  0  0  0  0  0
    2.2860    2.8280    3.1056 C   0  0  0  0  0  0
    4.1758    0.1002    4.6989 N   0  0  0  0  0  0
    5.0741    1.0886    4.7027 C   0  0  0  0  0  0
    0.8401    2.4291    3.4034 C   0  0  0  0  0  0
    0.1015    3.2984    3.9150 O   0  0  0  0  0  0
    2.1431   -0.1110    4.0256 H   0  0  0  0  0  0
    2.4850    3.8308    3.4848 H   0  0  0  0  0  0
    2.4662    2.8373    2.0300 H   0  0  0  0  0  0
    4.3369   -0.8284    5.0689 H   0  0  0  0  0  0
    6.0763    1.0458    5.0910 H   0  0  0  0  0  0
    4.4830    2.1445    4.1357 N   0  3  0  0  0  0
    4.9123    3.0544    4.0174 H   0  0  0  0  0  0
    0.5005    1.2614    3.1093 O   0  5  0  0  0  0
  1  2  2  0  0  0
  1  3  1  0  0  0
  1 13  1  0  0  0
  2  4  1  0  0  0
  2  8  1  0  0  0
  3  6  1  0  0  0
  3  9  1  0  0  0
  3 10  1  0  0  0
  4  5  1  0  0  0
  4 11  1  0  0  0
  5 12  1  0  0  0
  5 13  2  0  0  0
  6  7  2  0  0  0
  6 15  1  0  0  0
 13 14  1  0  0  0
M  CHG  2  13   1  15  -1
M  END
> <i_ionizer_Ion_state_n>
3

> <i_ionizer_Tot_Q>
0

> <s_ionizer_Ion_centers>
13_15

> <s_ionizer_Ion_types>
N4_OM

> <s_ionizer_Ion_ctrs_in>
3_8

> <r_ionizer_Ionization_penalty>
0.411272

> <r_ionizer_Ionization_penalty_charging>
0.411272

> <r_ionizer_Ionization_penalty_neutral>
0

> <i_mmod_Serial_Number-OPLS-2005>
512

> <i_i_glide_lignum>
506

> <r_i_docking_score>
-6.19489

> <r_i_glide_gscore>
-6.19489

> <r_i_glide_lipo>
-0.240672

> <r_i_glide_hbond>
-1.2

> <r_i_glide_metal>
0

> <r_i_glide_eburp>
-2.5

> <r_i_glide_evdw>
-10.5905

> <r_i_glide_ecoul>
-10.8712

> <r_i_glide_erotb>
0

> <r_i_glide_esite>
-0.319866

> <r_i_glide_emodel>
-45.3227

> <r_i_glide_energy>
-21.4617

> <r_i_glide_einternal>
0.268221

> <i_i_glide_confnum>
1

> <i_i_glide_posenum>
710

$$$$
C05202
                    3D
 Structure written by MMmdl.
 45 47  0  0  1  0            999 V2000
    2.3104    2.6576    2.5342 C   0  0  0  0  0  0
    3.4073    1.5979    2.4051 C   0  0  2  0  0  0
    1.1922    2.4433    3.3647 C   0  0  0  0  0  0
    2.3955    3.8527    1.7918 C   0  0  0  0  0  0
    3.2043    0.8092    1.0918 C   0  0  0  0  0  0
    0.1618    3.4023    3.4431 C   0  0  0  0  0  0
    1.1534    1.1900    4.2039 C   0  0  0  0  0  0
    1.3693    4.8139    1.8699 C   0  0  0  0  0  0
    4.4960    0.3096    0.4693 C   0  0  0  0  0  0
    2.5693    0.8774    4.6956 C   0  0  0  0  0  0
    4.9014    0.4851    4.0571 C   0  0  0  0  0  0
    0.2405    4.6013    2.6907 C   0  0  0  0  0  0
    1.4697    5.9612    1.1384 O   0  0  0  0  0  0
    4.5590   -0.9799   -0.0998 C   0  0  0  0  0  0
    5.6423    1.1319    0.4643 C   0  0  0  0  0  0
   -0.7220    5.5897    2.7110 O   0  0  0  0  0  0
    5.7631   -1.4470   -0.6617 C   0  0  0  0  0  0
    6.8457    0.6661   -0.1002 C   0  0  0  0  0  0
   -1.6124    5.6817    1.6084 C   0  0  0  0  0  0
    6.9087   -0.6242   -0.6627 C   0  0  0  0  0  0
    5.8192   -2.6979   -1.2027 O   0  0  0  0  0  0
    8.0775   -1.0758   -1.2067 O   0  0  0  0  0  0
    4.3447    2.1526    2.3285 H   0  0  0  0  0  0
    3.2454    4.0312    1.1489 H   0  0  0  0  0  0
    2.5350   -0.0353    1.2634 H   0  0  0  0  0  0
    2.7049    1.4392    0.3543 H   0  0  0  0  0  0
   -0.6762    3.2031    4.0937 H   0  0  0  0  0  0
    0.4837    1.3274    5.0538 H   0  0  0  0  0  0
    0.7564    0.3669    3.6085 H   0  0  0  0  0  0
    2.5542   -0.0088    5.3312 H   0  0  0  0  0  0
    2.9290    1.7027    5.3132 H   0  0  0  0  0  0
    4.9509   -0.2999    4.8124 H   0  0  0  0  0  0
    5.5758    0.2036    3.2486 H   0  0  0  0  0  0
    5.2731    1.4092    4.5019 H   0  0  0  0  0  0
    0.7407    6.5437    1.2919 H   0  0  0  0  0  0
    3.6863   -1.6168   -0.1040 H   0  0  0  0  0  0
    5.6032    2.1215    0.8962 H   0  0  0  0  0  0
    7.7185    1.3026   -0.0980 H   0  0  0  0  0  0
   -2.3021    6.5097    1.7716 H   0  0  0  0  0  0
   -1.0771    5.8775    0.6784 H   0  0  0  0  0  0
   -2.2075    4.7741    1.4997 H   0  0  0  0  0  0
    4.9623   -3.0971   -1.2393 H   0  0  0  0  0  0
    8.0100   -1.9481   -1.5639 H   0  0  0  0  0  0
    3.5123    0.6540    3.5686 N   0  3  2  0  0  0
    3.2476   -0.2425    3.1857 H   0  0  0  0  0  0
  1  2  1  0  0  0
  1  3  1  0  0  0
  1  4  2  0  0  0
  2  5  1  0  0  0
  2 23  1  0  0  0
  2 44  1  0  0  0
  3  6  2  0  0  0
  3  7  1  0  0  0
  4  8  1  0  0  0
  4 24  1  0  0  0
  5  9  1  0  0  0
  5 25  1  0  0  0
  5 26  1  0  0  0
  6 12  1  0  0  0
  6 27  1  0  0  0
  7 10  1  0  0  0
  7 28  1  0  0  0
  7 29  1  0  0  0
  8 13  1  0  0  0
  8 12  2  0  0  0
  9 14  1  0  0  0
  9 15  2  0  0  0
 10 30  1  0  0  0
 10 31  1  0  0  0
 10 44  1  0  0  0
 11 32  1  0  0  0
 11 33  1  0  0  0
 11 34  1  0  0  0
 11 44  1  0  0  0
 12 16  1  0  0  0
 13 35  1  0  0  0
 14 17  2  0  0  0
 14 36  1  0  0  0
 15 18  1  0  0  0
 15 37  1  0  0  0
 16 19  1  0  0  0
 17 20  1  0  0  0
 17 21  1  0  0  0
 18 20  2  0  0  0
 18 38  1  0  0  0
 19 39  1  0  0  0
 19 40  1  0  0  0
 19 41  1  0  0  0
 20 22  1  0  0  0
 21 42  1  0  0  0
 22 43  1  0  0  0
 44 45  1  0  0  0
M  CHG  1  44   1
M  END
> <i_ionizer_Ion_state_n>
1

> <i_ionizer_Tot_Q>
1

> <s_ionizer_Ion_centers>
44

> <s_ionizer_Ion_types>
N5

> <s_ionizer_Ion_ctrs_in>
6

> <r_ionizer_Ionization_penalty>
0.00236876

> <r_ionizer_Ionization_penalty_charging>
0.00059219

> <r_ionizer_Ionization_penalty_neutral>
0.00177657

> <s_st_Chirality_1>
2_S_44_1_5_23

> <s_st_Chirality_2>
44_S_2_10_11_45

> <i_mmod_Serial_Number-OPLS-2005>
642

> <i_i_glide_lignum>
635

> <r_i_docking_score>
-6.19051

> <r_i_glide_gscore>
-6.19051

> <r_i_glide_lipo>
-1.739

> <r_i_glide_hbond>
-0.358972

> <r_i_glide_metal>
0

> <r_i_glide_eburp>
-1.39106

> <r_i_glide_evdw>
-28.1585

> <r_i_glide_ecoul>
-1.83313

> <r_i_glide_erotb>
0.425097

> <r_i_glide_esite>
-0.690585

> <r_i_glide_emodel>
-42.4894

> <r_i_glide_energy>
-29.9916

> <r_i_glide_einternal>
7.61666

> <i_i_glide_confnum>
3

> <i_i_glide_posenum>
381

$$$$
C00870
                    3D
 Structure written by MMmdl.
 14 14  0  0  1  0            999 V2000
    2.6602    1.3004    2.0909 C   0  0  0  0  0  0
    3.6997    0.5971    1.3140 N   0  3  0  0  0  0
    2.3042    2.6333    1.7762 C   0  0  0  0  0  0
    2.0019    0.6537    3.1637 C   0  0  0  0  0  0
    4.4463    1.2638    0.6042 O   0  0  0  0  0  0
    3.7725   -0.6240    1.4115 O   0  5  0  0  0  0
    1.3124    3.3043    2.5174 C   0  0  0  0  0  0
    1.0101    1.3247    3.9049 C   0  0  0  0  0  0
    0.6649    2.6503    3.5821 C   0  0  0  0  0  0
    2.7884    3.1539    0.9632 H   0  0  0  0  0  0
    2.2513   -0.3632    3.4284 H   0  0  0  0  0  0
    1.0496    4.3218    2.2672 H   0  0  0  0  0  0
    0.5148    0.8201    4.7216 H   0  0  0  0  0  0
   -0.2957    3.3002    4.3000 O   0  5  0  0  0  0
  1  2  1  0  0  0
  1  3  2  0  0  0
  1  4  1  0  0  0
  2  5  2  0  0  0
  2  6  1  0  0  0
  3  7  1  0  0  0
  3 10  1  0  0  0
  4  8  2  0  0  0
  4 11  1  0  0  0
  7  9  2  0  0  0
  7 12  1  0  0  0
  8  9  1  0  0  0
  8 13  1  0  0  0
  9 14  1  0  0  0
M  CHG  3   2   1   6  -1  14  -1
M  END
> <i_ionizer_Ion_state_n>
1

> <i_ionizer_Tot_Q>
-1

> <s_ionizer_Ion_centers>
14

> <s_ionizer_Ion_types>
OM

> <s_ionizer_Ion_ctrs_in>
10

> <r_ionizer_Ionization_penalty>
0.162797

> <r_ionizer_Ionization_penalty_charging>
0.162797

> <r_ionizer_Ionization_penalty_neutral>
0

> <i_mmod_Serial_Number-OPLS-2005>
349

> <i_i_glide_lignum>
346

> <r_i_docking_score>
-6.17702

> <r_i_glide_gscore>
-6.17702

> <r_i_glide_lipo>
-0.521507

> <r_i_glide_hbond>
-0.524655

> <r_i_glide_metal>
0

> <r_i_glide_eburp>
-2.5

> <r_i_glide_evdw>
-12.7597

> <r_i_glide_ecoul>
-10.0516

> <r_i_glide_erotb>
0

> <r_i_glide_esite>
-0.604926

> <r_i_glide_emodel>
-51.4237

> <r_i_glide_energy>
-22.8113

> <r_i_glide_einternal>
0.119548

> <i_i_glide_confnum>
1

> <i_i_glide_posenum>
616

$$$$
C01598
                    3D
 Structure written by MMmdl.
 33 34  0  0  1  0            999 V2000
    1.9507    2.6113    3.3362 C   0  0  0  0  0  0
    2.8152    3.6583    2.9070 C   0  0  0  0  0  0
    2.7650    1.5119    3.7847 C   0  0  0  0  0  0
    0.5585    2.8440    3.2414 C   0  0  0  0  0  0
    4.0970    3.1842    3.0992 N   0  0  0  0  0  0
    2.3189    4.8751    2.4097 C   0  0  0  0  0  0
    4.0698    1.9034    3.6226 C   0  0  0  0  0  0
    2.2940    0.1948    4.3213 C   0  0  0  0  0  0
    0.0346    4.0569    2.7454 C   0  0  0  0  0  0
    0.9287    5.0753    2.3287 C   0  0  0  0  0  0
    1.7786   -0.7299    3.2105 C   0  0  0  0  0  0
   -1.3385    4.1680    2.7002 O   0  0  0  0  0  0
    2.8576   -1.0970    2.3040 N   0  0  0  0  0  0
   -1.8970    5.3286    2.1019 C   0  0  0  0  0  0
    3.2951   -0.3248    1.2999 C   0  0  0  0  0  0
    4.4329   -0.8909    0.4577 C   0  0  0  0  0  0
    2.8280    0.7842    1.0433 O   0  0  0  0  0  0
   -0.1232    2.0686    3.5580 H   0  0  0  0  0  0
    4.9525    3.6805    2.8947 H   0  0  0  0  0  0
    2.9989    5.6513    2.0916 H   0  0  0  0  0  0
    4.9853    1.3714    3.8377 H   0  0  0  0  0  0
    3.1045   -0.2986    4.8595 H   0  0  0  0  0  0
    1.5033    0.3598    5.0544 H   0  0  0  0  0  0
    0.5725    6.0183    1.9430 H   0  0  0  0  0  0
    1.3487   -1.6345    3.6440 H   0  0  0  0  0  0
    0.9862   -0.2336    2.6477 H   0  0  0  0  0  0
    3.2991   -1.9934    2.4478 H   0  0  0  0  0  0
   -2.9843    5.2666    2.1434 H   0  0  0  0  0  0
   -1.5983    6.2338    2.6322 H   0  0  0  0  0  0
   -1.6117    5.4129    1.0524 H   0  0  0  0  0  0
    4.7164   -0.1917   -0.3296 H   0  0  0  0  0  0
    5.3093   -1.0795    1.0782 H   0  0  0  0  0  0
    4.1308   -1.8279   -0.0108 H   0  0  0  0  0  0
  1  2  2  0  0  0
  1  3  1  0  0  0
  1  4  1  0  0  0
  2  5  1  0  0  0
  2  6  1  0  0  0
  3  7  2  0  0  0
  3  8  1  0  0  0
  4  9  2  0  0  0
  4 18  1  0  0  0
  5  7  1  0  0  0
  5 19  1  0  0  0
  6 10  2  0  0  0
  6 20  1  0  0  0
  7 21  1  0  0  0
  8 11  1  0  0  0
  8 22  1  0  0  0
  8 23  1  0  0  0
  9 12  1  0  0  0
  9 10  1  0  0  0
 10 24  1  0  0  0
 11 13  1  0  0  0
 11 25  1  0  0  0
 11 26  1  0  0  0
 12 14  1  0  0  0
 13 15  1  0  0  0
 13 27  1  0  0  0
 14 28  1  0  0  0
 14 29  1  0  0  0
 14 30  1  0  0  0
 15 16  1  0  0  0
 15 17  2  0  0  0
 16 31  1  0  0  0
 16 32  1  0  0  0
 16 33  1  0  0  0
M  END
> <i_ionizer_Ion_state_n>
0

> <i_ionizer_Tot_Q>
0

> <s_ionizer_Ion_centers>


> <s_ionizer_Ion_types>


> <s_ionizer_Ion_ctrs_in>


> <r_ionizer_Ionization_penalty>
0

> <r_ionizer_Ionization_penalty_charging>
0

> <r_ionizer_Ionization_penalty_neutral>
0

> <i_mmod_Serial_Number-OPLS-2005>
450

> <i_i_glide_lignum>
446

> <r_i_docking_score>
-6.17345

> <r_i_glide_gscore>
-6.17345

> <r_i_glide_lipo>
-1.07183

> <r_i_glide_hbond>
-0.5

> <r_i_glide_metal>
0

> <r_i_glide_eburp>
-2.02815

> <r_i_glide_evdw>
-29.5866

> <r_i_glide_ecoul>
-3.75662

> <r_i_glide_erotb>
1.0883

> <r_i_glide_esite>
-0.919175

> <r_i_glide_emodel>
-47.7458

> <r_i_glide_energy>
-33.3432

> <r_i_glide_einternal>
0.313248

> <i_i_glide_confnum>
18

> <i_i_glide_posenum>
341

$$$$
C00314
                    3D
 Structure written by MMmdl.
 23 23  0  0  1  0            999 V2000
    4.0053    1.4013    3.8231 C   0  0  0  0  0  0
    3.6748    2.7601    3.5777 C   0  0  0  0  0  0
    3.0351    0.4086    3.5391 C   0  0  0  0  0  0
    5.3724    1.0076    4.3720 C   0  0  0  0  0  0
    2.3821    3.0453    3.0806 C   0  0  0  0  0  0
    4.6690    3.8845    3.8556 C   0  0  0  0  0  0
    1.7783    0.8137    3.0366 C   0  0  0  0  0  0
    3.3011   -0.9181    3.7410 O   0  0  0  0  0  0
    5.3000    0.4999    5.6875 O   0  0  0  0  0  0
    1.4550    2.1035    2.8148 N   0  0  0  0  0  0
    4.1805    4.8999    4.7078 O   0  0  0  0  0  0
    0.6975   -0.2007    2.7129 C   0  0  0  0  0  0
    5.8416    0.2645    3.7277 H   0  0  0  0  0  0
    6.0483    1.8626    4.3668 H   0  0  0  0  0  0
    2.0672    4.0600    2.8882 H   0  0  0  0  0  0
    5.5691    3.4594    4.3004 H   0  0  0  0  0  0
    4.9620    4.3606    2.9200 H   0  0  0  0  0  0
    3.9942   -1.0717    4.3647 H   0  0  0  0  0  0
    4.9861   -0.3903    5.6491 H   0  0  0  0  0  0
    3.4975    5.3715    4.2554 H   0  0  0  0  0  0
    1.0475   -0.8967    1.9503 H   0  0  0  0  0  0
    0.4313   -0.7684    3.6047 H   0  0  0  0  0  0
   -0.2061    0.2826    2.3388 H   0  0  0  0  0  0
  1  2  2  0  0  0
  1  3  1  0  0  0
  1  4  1  0  0  0
  2  5  1  0  0  0
  2  6  1  0  0  0
  3  7  2  0  0  0
  3  8  1  0  0  0
  4  9  1  0  0  0
  4 13  1  0  0  0
  4 14  1  0  0  0
  5 10  2  0  0  0
  5 15  1  0  0  0
  6 11  1  0  0  0
  6 16  1  0  0  0
  6 17  1  0  0  0
  7 12  1  0  0  0
  7 10  1  0  0  0
  8 18  1  0  0  0
  9 19  1  0  0  0
 11 20  1  0  0  0
 12 21  1  0  0  0
 12 22  1  0  0  0
 12 23  1  0  0  0
M  END
> <i_ionizer_Ion_state_n>
0

> <i_ionizer_Tot_Q>
0

> <s_ionizer_Ion_centers>


> <s_ionizer_Ion_types>


> <s_ionizer_Ion_ctrs_in>


> <r_ionizer_Ionization_penalty>
0.0184459

> <r_ionizer_Ionization_penalty_charging>
0

> <r_ionizer_Ionization_penalty_neutral>
0.0184459

> <i_mmod_Serial_Number-OPLS-2005>
187

> <i_i_glide_lignum>
185

> <r_i_docking_score>
-6.17097

> <r_i_glide_gscore>
-6.17097

> <r_i_glide_lipo>
-0.739609

> <r_i_glide_hbond>
-0.8912

> <r_i_glide_metal>
0

> <r_i_glide_eburp>
-2.5

> <r_i_glide_evdw>
-20.4105

> <r_i_glide_ecoul>
-8.64113

> <r_i_glide_erotb>
1.22967

> <r_i_glide_esite>
-0.772878

> <r_i_glide_emodel>
-36.7105

> <r_i_glide_energy>
-29.0517

> <r_i_glide_einternal>
1.66125

> <i_i_glide_confnum>
4

> <i_i_glide_posenum>
134

$$$$
C02235
                    3D
 Structure written by MMmdl.
 15 15  0  0  1  0            999 V2000
    3.0087    1.8086    1.8505 C   0  0  0  0  0  0
    2.4612    1.0091    2.8813 C   0  0  0  0  0  0
    2.5036    3.1166    1.6595 C   0  0  0  0  0  0
    4.0881    1.2872    0.9895 N   0  3  0  0  0  0
    1.4315    1.5081    3.7019 C   0  0  0  0  0  0
    1.4736    3.6150    2.4806 C   0  0  0  0  0  0
    4.7389    2.0864    0.3238 O   0  0  0  0  0  0
    4.2881    0.0766    0.9767 O   0  5  0  0  0  0
    0.9355    2.8118    3.5033 C   0  0  0  0  0  0
    0.9077    0.7334    4.6935 O   0  0  0  0  0  0
    2.8266    0.0069    3.0509 H   0  0  0  0  0  0
    2.9014    3.7506    0.8809 H   0  0  0  0  0  0
    1.0972    4.6154    2.3238 H   0  0  0  0  0  0
    1.3936   -0.0781    4.7383 H   0  0  0  0  0  0
   -0.0638    3.2992    4.2980 O   0  5  0  0  0  0
  1  2  1  0  0  0
  1  3  2  0  0  0
  1  4  1  0  0  0
  2  5  2  0  0  0
  2 11  1  0  0  0
  3  6  1  0  0  0
  3 12  1  0  0  0
  4  7  2  0  0  0
  4  8  1  0  0  0
  5  9  1  0  0  0
  5 10  1  0  0  0
  6  9  2  0  0  0
  6 13  1  0  0  0
  9 15  1  0  0  0
 10 14  1  0  0  0
M  CHG  3   4   1   8  -1  15  -1
M  END
> <i_ionizer_Ion_state_n>
2

> <i_ionizer_Tot_Q>
-1

> <s_ionizer_Ion_centers>
15

> <s_ionizer_Ion_types>
OM

> <s_ionizer_Ion_ctrs_in>
11

> <r_ionizer_Ionization_penalty>
0.163389

> <r_ionizer_Ionization_penalty_charging>
0.162797

> <r_ionizer_Ionization_penalty_neutral>
0.00059219

> <i_mmod_Serial_Number-OPLS-2005>
482

> <i_i_glide_lignum>
477

> <r_i_docking_score>
-6.166

> <r_i_glide_gscore>
-6.166

> <r_i_glide_lipo>
-0.495152

> <r_i_glide_hbond>
-0.7

> <r_i_glide_metal>
0

> <r_i_glide_eburp>
-2.5

> <r_i_glide_evdw>
-14.1672

> <r_i_glide_ecoul>
-10.3904

> <r_i_glide_erotb>
0

> <r_i_glide_esite>
-0.298431

> <r_i_glide_emodel>
-53.5814

> <r_i_glide_energy>
-24.5576

> <r_i_glide_einternal>
0.144621

> <i_i_glide_confnum>
1

> <i_i_glide_posenum>
497

$$$$
C04677
                    3D
 Structure written by MMmdl.
 35 36  0  0  1  0            999 V2000
    4.0766    0.4012    0.7478 N   0  0  0  0  0  0
    2.7134    0.1154    1.3012 C   0  0  2  0  0  0
    4.9736   -0.5110    0.1948 C   0  0  0  0  0  0
    4.7031    1.5865    0.6809 C   0  0  0  0  0  0
    1.9073    1.2756    1.1585 O   0  0  0  0  0  0
    2.8262   -0.1224    2.8023 C   0  0  1  0  0  0
    6.0997    0.1981   -0.1781 C   0  0  0  0  0  0
    4.6592   -1.8635    0.1049 N   0  0  0  0  0  0
    5.9137    1.5453    0.1400 N   0  0  0  0  0  0
    1.2238    1.5848    2.3623 C   0  0  1  0  0  0
    1.5361    0.4486    3.3478 C   0  0  1  0  0  0
    2.9492   -1.4997    3.1002 O   0  0  0  0  0  0
    7.3363   -0.3441   -0.8159 C   0  0  0  0  0  0
    1.6294    2.9623    2.9137 C   0  0  0  0  0  0
    0.5007   -0.5107    3.4253 O   0  0  0  0  0  0
    8.4112    0.4385   -0.6950 N   0  0  0  0  0  0
    7.3760   -1.4221   -1.4058 O   0  0  0  0  0  0
    1.2460    3.9969    2.0231 O   0  0  0  0  0  0
   -0.0692    5.0693    2.5952 P   0  0  0  0  0  0
   -0.1590    6.1042    1.4522 O   0  0  0  0  0  0
    2.3614   -0.7519    0.7415 H   0  0  0  0  0  0
    4.2642    2.5064    1.0380 H   0  0  0  0  0  0
    3.6930    0.3926    3.2193 H   0  0  0  0  0  0
    5.2995   -2.5386   -0.2900 H   0  0  0  0  0  0
    3.7894   -2.2575    0.4350 H   0  0  0  0  0  0
    0.1515    1.5643    2.1609 H   0  0  0  0  0  0
    1.7120    0.8647    4.3408 H   0  0  0  0  0  0
    3.2611   -1.5666    3.9913 H   0  0  0  0  0  0
    1.2413    3.1121    3.9216 H   0  0  0  0  0  0
    2.7151    3.0138    2.9939 H   0  0  0  0  0  0
    0.7953   -1.1895    4.0295 H   0  0  0  0  0  0
    9.2925    0.1524   -1.0942 H   0  0  0  0  0  0
    8.3247    1.3145   -0.1993 H   0  0  0  0  0  0
   -1.2554    4.0869    2.7157 O   0  5  0  0  0  0
    0.5157    5.5888    3.9263 O   0  5  0  0  0  0
  1  2  1  0  0  0
  1  3  1  0  0  0
  1  4  1  0  0  0
  2  5  1  0  0  0
  2  6  1  0  0  0
  2 21  1  0  0  0
  3  7  2  0  0  0
  3  8  1  0  0  0
  4  9  2  0  0  0
  4 22  1  0  0  0
  5 10  1  0  0  0
  6 11  1  0  0  0
  6 12  1  0  0  0
  6 23  1  0  0  0
  7 13  1  0  0  0
  7  9  1  0  0  0
  8 24  1  0  0  0
  8 25  1  0  0  0
 10 14  1  0  0  0
 10 11  1  0  0  0
 10 26  1  0  0  0
 11 15  1  0  0  0
 11 27  1  0  0  0
 12 28  1  0  0  0
 13 16  1  0  0  0
 13 17  2  0  0  0
 14 18  1  0  0  0
 14 29  1  0  0  0
 14 30  1  0  0  0
 15 31  1  0  0  0
 16 32  1  0  0  0
 16 33  1  0  0  0
 18 19  1  0  0  0
 19 20  2  0  0  0
 19 34  1  0  0  0
 19 35  1  0  0  0
M  CHG  2  34  -1  35  -1
M  END
> <i_ionizer_Ion_state_n>
6

> <i_ionizer_Tot_Q>
-2

> <s_ionizer_Ion_centers>
34_35

> <s_ionizer_Ion_types>
OM_OM

> <s_ionizer_Ion_ctrs_in>
20_21

> <r_ionizer_Ionization_penalty>
0.410695

> <r_ionizer_Ionization_penalty_charging>
1.49178e-05

> <r_ionizer_Ionization_penalty_neutral>
0.41068

> <s_st_Chirality_1>
2_R_5_1_6_21

> <s_st_Chirality_2>
6_R_12_2_11_23

> <s_st_Chirality_3>
10_R_5_11_14_26

> <s_st_Chirality_4>
11_R_15_6_10_27

> <i_mmod_Serial_Number-OPLS-2005>
606

> <i_i_glide_lignum>
600

> <r_i_docking_score>
-6.15021

> <r_i_glide_gscore>
-6.15021

> <r_i_glide_lipo>
-0.623087

> <r_i_glide_hbond>
-0.776923

> <r_i_glide_metal>
0

> <r_i_glide_eburp>
-1.24091

> <r_i_glide_evdw>
-29.9036

> <r_i_glide_ecoul>
-5.30958

> <r_i_glide_erotb>
0.572791

> <r_i_glide_esite>
-1.15884

> <r_i_glide_emodel>
-74.361

> <r_i_glide_energy>
-35.2132

> <r_i_glide_einternal>
6.49555

> <i_i_glide_confnum>
37

> <i_i_glide_posenum>
962

$$$$
C00530
                    3D
 Structure written by MMmdl.
 14 14  0  0  1  0            999 V2000
    1.2574   -0.2027    2.1149 C   0  0  0  0  0  0
    2.4044    0.3618    1.5226 C   0  0  0  0  0  0
    1.3078   -0.6659    3.4451 C   0  0  0  0  0  0
    0.1001   -0.2996    1.3989 O   0  0  0  0  0  0
    3.6009    0.4633    2.2592 C   0  0  0  0  0  0
    2.5045   -0.5644    4.1819 C   0  0  0  0  0  0
    3.6516    0.0004    3.5890 C   0  0  0  0  0  0
    4.8119    0.1001    4.2998 O   0  0  0  0  0  0
    2.3686    0.7176    0.5033 H   0  0  0  0  0  0
    0.4320   -1.0997    3.9049 H   0  0  0  0  0  0
    0.1610    0.0848    0.5380 H   0  0  0  0  0  0
    4.4786    0.8966    1.8024 H   0  0  0  0  0  0
    2.5369   -0.9211    5.2009 H   0  0  0  0  0  0
    4.8827   -0.5413    4.9899 H   0  0  0  0  0  0
  1  2  2  0  0  0
  1  3  1  0  0  0
  1  4  1  0  0  0
  2  5  1  0  0  0
  2  9  1  0  0  0
  3  6  2  0  0  0
  3 10  1  0  0  0
  4 11  1  0  0  0
  5  7  2  0  0  0
  5 12  1  0  0  0
  6  7  1  0  0  0
  6 13  1  0  0  0
  7  8  1  0  0  0
  8 14  1  0  0  0
M  END
> <i_ionizer_Ion_state_n>
0

> <i_ionizer_Tot_Q>
0

> <s_ionizer_Ion_centers>


> <s_ionizer_Ion_types>


> <s_ionizer_Ion_ctrs_in>


> <r_ionizer_Ionization_penalty>
0.00118438

> <r_ionizer_Ionization_penalty_charging>
0

> <r_ionizer_Ionization_penalty_neutral>
0.00118438

> <i_mmod_Serial_Number-OPLS-2005>
270

> <i_i_glide_lignum>
268

> <r_i_docking_score>
-6.14325

> <r_i_glide_gscore>
-6.14325

> <r_i_glide_lipo>
-0.661724

> <r_i_glide_hbond>
-0.569471

> <r_i_glide_metal>
0

> <r_i_glide_eburp>
-2.5

> <r_i_glide_evdw>
-15.9405

> <r_i_glide_ecoul>
-6.51389

> <r_i_glide_erotb>
0

> <r_i_glide_esite>
-0.485419

> <r_i_glide_emodel>
-28.0803

> <r_i_glide_energy>
-22.4544

> <r_i_glide_einternal>
0.639405

> <i_i_glide_confnum>
1

> <i_i_glide_posenum>
41

$$$$
C00785
                    3D
 Structure written by MMmdl.
 16 16  0  0  1  0            999 V2000
    3.3842    1.9238    3.9139 C   0  0  0  0  0  0
    2.4291    2.9287    3.4386 C   0  0  0  0  0  0
    3.1104    0.6389    4.2967 C   0  0  0  0  0  0
    1.0937    2.8284    3.5491 C   0  0  0  0  0  0
    4.3196    0.1001    4.6564 N   0  0  0  0  0  0
    5.2989    1.0042    4.5054 C   0  0  0  0  0  0
    0.1034    3.9002    3.0409 C   0  0  0  0  0  0
    0.6065    4.8410    2.3903 O   0  0  0  0  0  0
    2.8499    3.8061    2.9683 H   0  0  0  0  0  0
    2.1823    0.0870    4.3391 H   0  0  0  0  0  0
    0.6594    1.9578    4.0165 H   0  0  0  0  0  0
    4.4570   -0.8464    4.9893 H   0  0  0  0  0  0
    6.3442    0.8562    4.7115 H   0  0  0  0  0  0
    4.7293    2.1262    4.0495 N   0  3  0  0  0  0
    5.2147    2.9889    3.8379 H   0  0  0  0  0  0
   -1.1001    3.7011    3.3120 O   0  5  0  0  0  0
  1  2  1  0  0  0
  1  3  2  0  0  0
  1 14  1  0  0  0
  2  4  2  0  0  0
  2  9  1  0  0  0
  3  5  1  0  0  0
  3 10  1  0  0  0
  4  7  1  0  0  0
  4 11  1  0  0  0
  5  6  1  0  0  0
  5 12  1  0  0  0
  6 13  1  0  0  0
  6 14  2  0  0  0
  7  8  2  0  0  0
  7 16  1  0  0  0
 14 15  1  0  0  0
M  CHG  2  14   1  16  -1
M  END
> <i_ionizer_Ion_state_n>
3

> <i_ionizer_Tot_Q>
0

> <s_ionizer_Ion_centers>
14_16

> <s_ionizer_Ion_types>
N4_OM

> <s_ionizer_Ion_ctrs_in>
4_9

> <r_ionizer_Ionization_penalty>
0.411272

> <r_ionizer_Ionization_penalty_charging>
0.411272

> <r_ionizer_Ionization_penalty_neutral>
0

> <s_st_EZ_1>
1_2_4_7_E

> <i_mmod_Serial_Number-OPLS-2005>
334

> <i_i_glide_lignum>
331

> <r_i_docking_score>
-6.13387

> <r_i_glide_gscore>
-6.13387

> <r_i_glide_lipo>
-0.310408

> <r_i_glide_hbond>
-1.75164

> <r_i_glide_metal>
0

> <r_i_glide_eburp>
-2.9

> <r_i_glide_evdw>
-10.4694

> <r_i_glide_ecoul>
-10.3548

> <r_i_glide_erotb>
0.851278

> <r_i_glide_esite>
-0.150075

> <r_i_glide_emodel>
-45.9015

> <r_i_glide_energy>
-20.8242

> <r_i_glide_einternal>
1.47279

> <i_i_glide_confnum>
2

> <i_i_glide_posenum>
225

$$$$
C04051
                    3D
 Structure written by MMmdl.
 15 15  0  0  1  0            999 V2000
    3.0588    1.5406    3.8543 C   0  0  0  0  0  0
    4.3572    1.4943    4.3280 C   0  0  0  0  0  0
    2.0528    0.4374    3.8809 C   0  0  0  0  0  0
    2.8104    2.8157    3.3262 N   0  0  0  0  0  0
    4.9000    2.7434    4.0877 N   0  0  0  0  0  0
    5.1109    0.5000    4.9372 N   0  0  0  0  0  0
    2.4913   -0.6995    4.4264 N   0  0  0  0  0  0
    0.9110    0.5533    3.4400 O   0  0  0  0  0  0
    3.9501    3.4753    3.5000 C   0  0  0  0  0  0
    5.8362    3.0468    4.3128 H   0  0  0  0  0  0
    6.0688    0.6206    5.2331 H   0  0  0  0  0  0
    4.7318   -0.4190    5.1211 H   0  0  0  0  0  0
    1.8799   -1.4998    4.4873 H   0  0  0  0  0  0
    3.4390   -0.7412    4.7736 H   0  0  0  0  0  0
    4.0938    4.5017    3.1960 H   0  0  0  0  0  0
  1  2  2  0  0  0
  1  3  1  0  0  0
  1  4  1  0  0  0
  2  5  1  0  0  0
  2  6  1  0  0  0
  3  7  1  0  0  0
  3  8  2  0  0  0
  4  9  2  0  0  0
  5  9  1  0  0  0
  5 10  1  0  0  0
  6 11  1  0  0  0
  6 12  1  0  0  0
  7 13  1  0  0  0
  7 14  1  0  0  0
  9 15  1  0  0  0
M  END
> <i_ionizer_Ion_state_n>
0

> <i_ionizer_Tot_Q>
0

> <s_ionizer_Ion_centers>


> <s_ionizer_Ion_types>


> <s_ionizer_Ion_ctrs_in>


> <r_ionizer_Ionization_penalty>
0.41068

> <r_ionizer_Ionization_penalty_charging>
0

> <r_ionizer_Ionization_penalty_neutral>
0.41068

> <i_mmod_Serial_Number-OPLS-2005>
578

> <i_i_glide_lignum>
572

> <r_i_docking_score>
-6.13067

> <r_i_glide_gscore>
-6.13067

> <r_i_glide_lipo>
-0.185745

> <r_i_glide_hbond>
-0.672349

> <r_i_glide_metal>
0

> <r_i_glide_eburp>
-2.5

> <r_i_glide_evdw>
-17.171

> <r_i_glide_ecoul>
-6.81125

> <r_i_glide_erotb>
0

> <r_i_glide_esite>
-0.71777

> <r_i_glide_emodel>
-32.5524

> <r_i_glide_energy>
-23.9823

> <r_i_glide_einternal>
0.566156

> <i_i_glide_confnum>
1

> <i_i_glide_posenum>
87

$$$$
C06674
                    3D
 Structure written by MMmdl.
 17 17  0  0  1  0            999 V2000
    0.5586    4.3094    3.1965 S   0  0  0  0  0  0
    1.6792    2.9289    3.4171 C   0  0  0  0  0  0
    0.8999    5.2209    4.3002 O   0  0  0  0  0  0
   -0.7768    3.7000    3.2979 O   0  0  0  0  0  0
    1.1872    1.6990    3.8997 C   0  0  0  0  0  0
    3.0425    3.0735    3.0879 C   0  0  0  0  0  0
    2.0680    0.6119    4.0632 C   0  0  0  0  0  0
    3.9202    1.9842    3.2531 C   0  0  0  0  0  0
    3.4350    0.7538    3.7415 C   0  0  0  0  0  0
    1.5984   -0.5804    4.5321 O   0  0  0  0  0  0
    4.2899   -0.3001    3.8999 O   0  0  0  0  0  0
    0.1403    1.5885    4.1415 H   0  0  0  0  0  0
    3.4157    4.0136    2.7089 H   0  0  0  0  0  0
    4.9646    2.0978    3.0020 H   0  0  0  0  0  0
    2.3073   -1.1539    4.7830 H   0  0  0  0  0  0
    3.9986   -0.9176    4.5531 H   0  0  0  0  0  0
    0.9086    4.8067    1.8571 O   0  5  0  0  0  0
  1  2  1  0  0  0
  1  3  2  0  0  0
  1  4  2  0  0  0
  1 17  1  0  0  0
  2  5  1  0  0  0
  2  6  2  0  0  0
  5  7  2  0  0  0
  5 12  1  0  0  0
  6  8  1  0  0  0
  6 13  1  0  0  0
  7  9  1  0  0  0
  7 10  1  0  0  0
  8  9  2  0  0  0
  8 14  1  0  0  0
  9 11  1  0  0  0
 10 15  1  0  0  0
 11 16  1  0  0  0
M  CHG  1  17  -1
M  END
> <i_ionizer_Ion_state_n>
1

> <i_ionizer_Tot_Q>
-1

> <s_ionizer_Ion_centers>
17

> <s_ionizer_Ion_types>
OM

> <s_ionizer_Ion_ctrs_in>
3

> <r_ionizer_Ionization_penalty>
0.00118439

> <r_ionizer_Ionization_penalty_charging>
5.92486e-09

> <r_ionizer_Ionization_penalty_neutral>
0.00118438

> <i_mmod_Serial_Number-OPLS-2005>
884

> <i_i_glide_lignum>
872

> <r_i_docking_score>
-6.13053

> <r_i_glide_gscore>
-6.13053

> <r_i_glide_lipo>
-0.535728

> <r_i_glide_hbond>
-1.55494

> <r_i_glide_metal>
0

> <r_i_glide_eburp>
-2.35479

> <r_i_glide_evdw>
-16.5933

> <r_i_glide_ecoul>
-5.60327

> <r_i_glide_erotb>
0.511872

> <r_i_glide_esite>
-0.309155

> <r_i_glide_emodel>
-44.0161

> <r_i_glide_energy>
-22.1966

> <r_i_glide_einternal>
0.913794

> <i_i_glide_confnum>
6

> <i_i_glide_posenum>
49

$$$$
C05598
                    3D
 Structure written by MMmdl.
 24 24  0  0  1  0            999 V2000
    2.3645    1.8884    2.7418 C   0  0  0  0  0  0
    2.1796    3.0523    1.7824 C   0  0  0  0  0  0
    1.2493    1.3327    3.4048 C   0  0  0  0  0  0
    3.6503    1.3536    2.9722 C   0  0  0  0  0  0
    2.6483    4.3620    2.4190 C   0  0  0  0  0  0
    1.4191    0.2535    4.2939 C   0  0  0  0  0  0
    3.8193    0.2745    3.8615 C   0  0  0  0  0  0
    1.7084    5.2981    2.6198 N   0  0  0  0  0  0
    3.8325    4.5067    2.7213 O   0  0  0  0  0  0
    2.7041   -0.2756    4.5226 C   0  0  0  0  0  0
    0.3312    5.2459    2.1422 C   0  0  0  0  0  0
   -0.4780    4.2722    2.9962 C   0  0  0  0  0  0
    0.1168    3.7003    3.9355 O   0  0  0  0  0  0
    2.7336    2.8737    0.8598 H   0  0  0  0  0  0
    1.1278    3.1336    1.5049 H   0  0  0  0  0  0
    0.2615    1.7359    3.2350 H   0  0  0  0  0  0
    4.5109    1.7708    2.4698 H   0  0  0  0  0  0
    0.5636   -0.1678    4.8009 H   0  0  0  0  0  0
    4.8049   -0.1309    4.0368 H   0  0  0  0  0  0
    1.9745    6.1432    3.1039 H   0  0  0  0  0  0
    2.8342   -1.1028    5.2047 H   0  0  0  0  0  0
   -0.1458    6.2275    2.1491 H   0  0  0  0  0  0
    0.3288    4.9000    1.1084 H   0  0  0  0  0  0
   -1.6797    4.1116    2.6877 O   0  5  0  0  0  0
  1  2  1  0  0  0
  1  3  1  0  0  0
  1  4  2  0  0  0
  2  5  1  0  0  0
  2 14  1  0  0  0
  2 15  1  0  0  0
  3  6  2  0  0  0
  3 16  1  0  0  0
  4  7  1  0  0  0
  4 17  1  0  0  0
  5  8  1  0  0  0
  5  9  2  0  0  0
  6 10  1  0  0  0
  6 18  1  0  0  0
  7 10  2  0  0  0
  7 19  1  0  0  0
  8 11  1  0  0  0
  8 20  1  0  0  0
 10 21  1  0  0  0
 11 12  1  0  0  0
 11 22  1  0  0  0
 11 23  1  0  0  0
 12 13  2  0  0  0
 12 24  1  0  0  0
M  CHG  1  24  -1
M  END
> <i_ionizer_Ion_state_n>
1

> <i_ionizer_Tot_Q>
-1

> <s_ionizer_Ion_centers>
24

> <s_ionizer_Ion_types>
OM

> <s_ionizer_Ion_ctrs_in>
13

> <r_ionizer_Ionization_penalty>
0.00059219

> <r_ionizer_Ionization_penalty_charging>
0.00059219

> <r_ionizer_Ionization_penalty_neutral>
0

> <i_mmod_Serial_Number-OPLS-2005>
759

> <i_i_glide_lignum>
750

> <r_i_docking_score>
-6.12626

> <r_i_glide_gscore>
-6.12626

> <r_i_glide_lipo>
-0.716034

> <r_i_glide_hbond>
-1.4

> <r_i_glide_metal>
0

> <r_i_glide_eburp>
-2.73185

> <r_i_glide_evdw>
-19.2662

> <r_i_glide_ecoul>
-7.16839

> <r_i_glide_erotb>
1.49575

> <r_i_glide_esite>
-0.515997

> <r_i_glide_emodel>
-53.182

> <r_i_glide_energy>
-26.4346

> <r_i_glide_einternal>
6.99111

> <i_i_glide_confnum>
8

> <i_i_glide_posenum>
470

$$$$
C00378
                    3D
 Structure written by MMmdl.
 35 36  0  0  1  0            999 V2000
    3.4065    1.8109    2.8231 N   0  3  0  0  0  0
    3.8460    1.2943    1.5971 C   0  0  0  0  0  0
    3.4244    3.2310    3.2051 C   0  0  0  0  0  0
    2.9417    0.8978    3.6880 C   0  0  0  0  0  0
    3.6761   -0.0742    1.5534 C   0  0  0  0  0  0
    4.4225    2.0845    0.4541 C   0  0  0  0  0  0
    2.1036    3.9108    2.8701 C   0  0  0  0  0  0
    3.0139   -0.6999    3.0371 S   0  0  0  0  0  0
    4.0007   -1.0163    0.4365 C   0  0  0  0  0  0
    1.9786    4.9584    1.9259 C   0  0  0  0  0  0
    0.9071    3.5047    3.4992 C   0  0  0  0  0  0
    5.4810   -0.9830    0.0340 C   0  0  0  0  0  0
    0.7851    5.5181    1.6445 N   0  0  0  0  0  0
    3.0300    5.4469    1.2541 N   0  0  0  0  0  0
   -0.2818    4.0733    3.2122 N   0  0  0  0  0  0
    5.7000   -1.8653   -1.0450 O   0  0  0  0  0  0
   -0.2786    5.0473    2.2998 C   0  0  0  0  0  0
   -1.6128    5.6898    1.9835 C   0  0  0  0  0  0
    3.6255    3.3185    4.2722 H   0  0  0  0  0  0
    4.2649    3.7086    2.7009 H   0  0  0  0  0  0
    2.5738    1.1214    4.6733 H   0  0  0  0  0  0
    5.0894    1.4836   -0.1639 H   0  0  0  0  0  0
    3.6338    2.4715   -0.1911 H   0  0  0  0  0  0
    5.0109    2.9326    0.8015 H   0  0  0  0  0  0
    3.7346   -2.0304    0.7374 H   0  0  0  0  0  0
    3.3759   -0.7978   -0.4299 H   0  0  0  0  0  0
    0.8998    2.7128    4.2329 H   0  0  0  0  0  0
    5.7772    0.0237   -0.2630 H   0  0  0  0  0  0
    6.1160   -1.2785    0.8699 H   0  0  0  0  0  0
    2.9136    6.2655    0.6742 H   0  0  0  0  0  0
    3.9739    5.2212    1.5292 H   0  0  0  0  0  0
    5.1633   -1.5927   -1.7740 H   0  0  0  0  0  0
   -2.4312    4.9840    2.1295 H   0  0  0  0  0  0
   -1.7790    6.5478    2.6351 H   0  0  0  0  0  0
   -1.6448    6.0330    0.9488 H   0  0  0  0  0  0
  1  2  1  0  0  0
  1  3  1  0  0  0
  1  4  2  0  0  0
  2  5  2  0  0  0
  2  6  1  0  0  0
  3  7  1  0  0  0
  3 19  1  0  0  0
  3 20  1  0  0  0
  4  8  1  0  0  0
  4 21  1  0  0  0
  5  9  1  0  0  0
  5  8  1  0  0  0
  6 22  1  0  0  0
  6 23  1  0  0  0
  6 24  1  0  0  0
  7 10  2  0  0  0
  7 11  1  0  0  0
  9 12  1  0  0  0
  9 25  1  0  0  0
  9 26  1  0  0  0
 10 13  1  0  0  0
 10 14  1  0  0  0
 11 15  2  0  0  0
 11 27  1  0  0  0
 12 16  1  0  0  0
 12 28  1  0  0  0
 12 29  1  0  0  0
 13 17  2  0  0  0
 14 30  1  0  0  0
 14 31  1  0  0  0
 15 17  1  0  0  0
 16 32  1  0  0  0
 17 18  1  0  0  0
 18 33  1  0  0  0
 18 34  1  0  0  0
 18 35  1  0  0  0
M  CHG  1   1   1
M  END
> <i_ionizer_Ion_state_n>
0

> <i_ionizer_Tot_Q>
1

> <s_ionizer_Ion_centers>


> <s_ionizer_Ion_types>


> <s_ionizer_Ion_ctrs_in>


> <r_ionizer_Ionization_penalty>
0

> <r_ionizer_Ionization_penalty_charging>
0

> <r_ionizer_Ionization_penalty_neutral>
0

> <i_mmod_Serial_Number-OPLS-2005>
215

> <i_i_glide_lignum>
213

> <r_i_docking_score>
-6.12339

> <r_i_glide_gscore>
-6.12339

> <r_i_glide_lipo>
-0.963063

> <r_i_glide_hbond>
-0.839848

> <r_i_glide_metal>
0

> <r_i_glide_eburp>
-1.77758

> <r_i_glide_evdw>
-32.1409

> <r_i_glide_ecoul>
-7.00422

> <r_i_glide_erotb>
1.15522

> <r_i_glide_esite>
-0.426424

> <r_i_glide_emodel>
-54.7041

> <r_i_glide_energy>
-39.1451

> <r_i_glide_einternal>
0.950708

> <i_i_glide_confnum>
14

> <i_i_glide_posenum>
657

$$$$
C07113
                    3D
 Structure written by MMmdl.
 17 17  0  0  1  0            999 V2000
    1.5551    1.9661    3.0238 C   0  0  0  0  0  0
    1.2999    1.0723    4.0901 C   0  0  0  0  0  0
    2.2988    1.5064    1.9100 C   0  0  0  0  0  0
    1.0369    3.3619    3.1002 C   0  0  0  0  0  0
    1.7769   -0.2521    4.0455 C   0  0  0  0  0  0
    2.7752    0.1813    1.8671 C   0  0  0  0  0  0
    1.7116    4.4215    2.2311 C   0  0  0  0  0  0
    0.1000    3.6999    3.8230 O   0  0  0  0  0  0
    2.5149   -0.6985    2.9339 C   0  0  0  0  0  0
    0.7352    1.3938    4.9536 H   0  0  0  0  0  0
    2.5171    2.1540    1.0741 H   0  0  0  0  0  0
    1.5759   -0.9258    4.8656 H   0  0  0  0  0  0
    3.3417   -0.1603    1.0133 H   0  0  0  0  0  0
    1.2400    5.3931    2.3805 H   0  0  0  0  0  0
    2.7669    4.5119    2.4889 H   0  0  0  0  0  0
    1.6274    4.1607    1.1760 H   0  0  0  0  0  0
    2.8808   -1.7142    2.8996 H   0  0  0  0  0  0
  1  2  1  0  0  0
  1  3  2  0  0  0
  1  4  1  0  0  0
  2  5  2  0  0  0
  2 10  1  0  0  0
  3  6  1  0  0  0
  3 11  1  0  0  0
  4  7  1  0  0  0
  4  8  2  0  0  0
  5  9  1  0  0  0
  5 12  1  0  0  0
  6  9  2  0  0  0
  6 13  1  0  0  0
  7 14  1  0  0  0
  7 15  1  0  0  0
  7 16  1  0  0  0
  9 17  1  0  0  0
M  END
> <i_ionizer_Ion_state_n>
0

> <i_ionizer_Tot_Q>
0

> <s_ionizer_Ion_centers>


> <s_ionizer_Ion_types>


> <s_ionizer_Ion_ctrs_in>


> <r_ionizer_Ionization_penalty>
0

> <r_ionizer_Ionization_penalty_charging>
0

> <r_ionizer_Ionization_penalty_neutral>
0

> <i_mmod_Serial_Number-OPLS-2005>
898

> <i_i_glide_lignum>
886

> <r_i_docking_score>
-6.11348

> <r_i_glide_gscore>
-6.11348

> <r_i_glide_lipo>
-0.688865

> <r_i_glide_hbond>
-0.5

> <r_i_glide_metal>
0

> <r_i_glide_eburp>
-2.5

> <r_i_glide_evdw>
-18.0484

> <r_i_glide_ecoul>
-3.52364

> <r_i_glide_erotb>
0

> <r_i_glide_esite>
-0.628372

> <r_i_glide_emodel>
-29.0291

> <r_i_glide_energy>
-21.5721

> <r_i_glide_einternal>
0.316758

> <i_i_glide_confnum>
1

> <i_i_glide_posenum>
707

$$$$
C00427
                    3D
 Structure written by MMmdl.
 56 57  0  0  1  0            999 V2000
    1.6708    0.6097    1.9143 C   0  0  2  0  0  0
    2.7004    1.2626    2.8637 C   0  0  2  0  0  0
    0.9545   -0.3940    2.8395 C   0  0  2  0  0  0
    2.2927   -0.0039    0.6466 C   0  0  0  0  0  0
    2.3498    0.6313    4.2239 C   0  0  1  0  0  0
    2.5962    2.7770    2.8830 C   0  0  0  0  0  0
    0.8575    0.3523    4.1577 C   0  0  0  0  0  0
    1.8881   -1.3951    3.2093 O   0  0  0  0  0  0
    3.1891    0.9742   -0.0920 C   0  0  0  0  0  0
    2.8290   -0.7001    4.1648 O   0  0  0  0  0  0
    3.3892    3.5997    2.1729 C   0  0  0  0  0  0
    4.5242    0.8953   -0.2425 C   0  0  0  0  0  0
    3.3295    5.1204    2.1510 C   0  0  2  0  0  0
    5.4472   -0.1727    0.3161 C   0  0  0  0  0  0
    3.1181    5.6516    0.7218 C   0  0  0  0  0  0
    4.4996    5.6974    2.6998 O   0  0  0  0  0  0
    6.1890   -0.9270   -0.7957 C   0  0  0  0  0  0
    2.1761    6.8655    0.6495 C   0  0  0  0  0  0
    7.6214   -1.3188   -0.3817 C   0  0  0  0  0  0
    0.7291    6.5099    1.0213 C   0  0  0  0  0  0
    8.5131   -0.1113   -0.0641 C   0  0  0  0  0  0
   -0.2217    7.7099    0.9053 C   0  0  0  0  0  0
    9.5837   -0.2993    0.5560 O   0  0  0  0  0  0
   -1.6805    7.3345    1.1882 C   0  0  0  0  0  0
    0.9390    1.3579    1.6036 H   0  0  0  0  0  0
    3.7200    0.9847    2.5904 H   0  0  0  0  0  0
    0.0157   -0.7908    2.4525 H   0  0  0  0  0  0
    2.8431   -0.9056    0.9097 H   0  0  0  0  0  0
    1.5119   -0.3311   -0.0407 H   0  0  0  0  0  0
    2.7013    1.1778    5.0997 H   0  0  0  0  0  0
    1.8240    3.1856    3.5182 H   0  0  0  0  0  0
    0.2511    1.2571    4.0965 H   0  0  0  0  0  0
    0.4997   -0.2701    4.9794 H   0  0  0  0  0  0
    2.6779    1.8154   -0.5371 H   0  0  0  0  0  0
    4.1520    3.1639    1.5439 H   0  0  0  0  0  0
    5.0157    1.6668   -0.8172 H   0  0  0  0  0  0
    2.4857    5.4144    2.7763 H   0  0  0  0  0  0
    6.1668    0.3196    0.9708 H   0  0  0  0  0  0
    4.9036   -0.8747    0.9462 H   0  0  0  0  0  0
    4.0818    5.9030    0.2761 H   0  0  0  0  0  0
    2.6994    4.8542    0.1061 H   0  0  0  0  0  0
    5.1733    5.6979    2.0371 H   0  0  0  0  0  0
    5.6236   -1.8231   -1.0573 H   0  0  0  0  0  0
    6.2210   -0.3061   -1.6925 H   0  0  0  0  0  0
    2.5396    7.6467    1.3184 H   0  0  0  0  0  0
    2.1934    7.2869   -0.3561 H   0  0  0  0  0  0
    7.5915   -1.9632    0.4974 H   0  0  0  0  0  0
    8.0945   -1.8934   -1.1787 H   0  0  0  0  0  0
    0.3765    5.7046    0.3756 H   0  0  0  0  0  0
    0.7007    6.1229    2.0407 H   0  0  0  0  0  0
    0.0885    8.4915    1.5998 H   0  0  0  0  0  0
   -0.1495    8.1393   -0.0947 H   0  0  0  0  0  0
   -2.3301    8.2054    1.0984 H   0  0  0  0  0  0
   -2.0366    6.5803    0.4858 H   0  0  0  0  0  0
   -1.7963    6.9358    2.1964 H   0  0  0  0  0  0
    8.0966    1.0000   -0.4572 O   0  5  0  0  0  0
  1  2  1  0  0  0
  1  3  1  0  0  0
  1  4  1  0  0  0
  1 25  1  0  0  0
  2  5  1  0  0  0
  2  6  1  0  0  0
  2 26  1  0  0  0
  3  7  1  0  0  0
  3  8  1  0  0  0
  3 27  1  0  0  0
  4  9  1  0  0  0
  4 28  1  0  0  0
  4 29  1  0  0  0
  5 10  1  0  0  0
  5  7  1  0  0  0
  5 30  1  0  0  0
  6 11  2  0  0  0
  6 31  1  0  0  0
  7 32  1  0  0  0
  7 33  1  0  0  0
  8 10  1  0  0  0
  9 12  2  0  0  0
  9 34  1  0  0  0
 11 13  1  0  0  0
 11 35  1  0  0  0
 12 14  1  0  0  0
 12 36  1  0  0  0
 13 15  1  0  0  0
 13 16  1  0  0  0
 13 37  1  0  0  0
 14 17  1  0  0  0
 14 38  1  0  0  0
 14 39  1  0  0  0
 15 18  1  0  0  0
 15 40  1  0  0  0
 15 41  1  0  0  0
 16 42  1  0  0  0
 17 19  1  0  0  0
 17 43  1  0  0  0
 17 44  1  0  0  0
 18 20  1  0  0  0
 18 45  1  0  0  0
 18 46  1  0  0  0
 19 21  1  0  0  0
 19 47  1  0  0  0
 19 48  1  0  0  0
 20 22  1  0  0  0
 20 49  1  0  0  0
 20 50  1  0  0  0
 21 23  2  0  0  0
 21 56  1  0  0  0
 22 24  1  0  0  0
 22 51  1  0  0  0
 22 52  1  0  0  0
 24 53  1  0  0  0
 24 54  1  0  0  0
 24 55  1  0  0  0
M  CHG  1  56  -1
M  END
> <i_ionizer_Ion_state_n>
1

> <i_ionizer_Tot_Q>
-1

> <s_ionizer_Ion_centers>
56

> <s_ionizer_Ion_types>
OM

> <s_ionizer_Ion_ctrs_in>
23

> <r_ionizer_Ionization_penalty>
0.00059219

> <r_ionizer_Ionization_penalty_charging>
0.00059219

> <r_ionizer_Ionization_penalty_neutral>
0

> <s_st_Chirality_1>
1_R_3_2_4_25

> <s_st_Chirality_2>
2_R_5_1_6_26

> <s_st_Chirality_3>
3_S_8_1_7_27

> <s_st_Chirality_4>
5_R_10_2_7_30

> <s_st_Chirality_5>
13_S_16_11_15_37

> <s_st_EZ_1>
2_6_11_13_E

> <s_st_EZ_2>
4_9_12_14_Z

> <i_mmod_Serial_Number-OPLS-2005>
232

> <i_i_glide_lignum>
230

> <r_i_docking_score>
-6.11313

> <r_i_glide_gscore>
-6.11313

> <r_i_glide_lipo>
-1.73446

> <r_i_glide_hbond>
-0.598084

> <r_i_glide_metal>
0

> <r_i_glide_eburp>
-1.12525

> <r_i_glide_evdw>
-33.4327

> <r_i_glide_ecoul>
-3.79721

> <r_i_glide_erotb>
1.7646

> <r_i_glide_esite>
-1.36561

> <r_i_glide_emodel>
-61.0797

> <r_i_glide_energy>
-37.2299

> <r_i_glide_einternal>
7.79634

> <i_i_glide_confnum>
230

> <i_i_glide_posenum>
866

$$$$
C00295
                    3D
 Structure written by MMmdl.
 14 14  0  0  1  0            999 V2000
    1.6585    2.2850    3.4987 C   0  0  0  0  0  0
    2.9802    2.1736    3.2051 C   0  0  0  0  0  0
    0.9447    1.2178    4.0088 N   0  0  0  0  0  0
    0.8024    3.5814    3.3070 C   0  0  0  0  0  0
    3.6878    0.9119    3.4229 C   0  0  0  0  0  0
    1.5426   -0.0196    4.2462 C   0  0  0  0  0  0
    1.2959    4.4692    2.5775 O   0  0  0  0  0  0
    2.8994   -0.1222    3.9412 N   0  0  0  0  0  0
    4.8785    0.7182    3.1875 O   0  0  0  0  0  0
    0.9083   -0.9684    4.6997 O   0  0  0  0  0  0
    3.5267    3.0163    2.8065 H   0  0  0  0  0  0
   -0.0375    1.3415    4.2142 H   0  0  0  0  0  0
    3.3478   -1.0109    4.1070 H   0  0  0  0  0  0
   -0.3000    3.6154    3.9003 O   0  5  0  0  0  0
  1  2  2  0  0  0
  1  3  1  0  0  0
  1  4  1  0  0  0
  2  5  1  0  0  0
  2 11  1  0  0  0
  3  6  1  0  0  0
  3 12  1  0  0  0
  4  7  2  0  0  0
  4 14  1  0  0  0
  5  8  1  0  0  0
  5  9  2  0  0  0
  6 10  2  0  0  0
  6  8  1  0  0  0
  8 13  1  0  0  0
M  CHG  1  14  -1
M  END
> <i_ionizer_Ion_state_n>
1

> <i_ionizer_Tot_Q>
-1

> <s_ionizer_Ion_centers>
14

> <s_ionizer_Ion_types>
OM

> <s_ionizer_Ion_ctrs_in>
7

> <r_ionizer_Ionization_penalty>
0.00059219

> <r_ionizer_Ionization_penalty_charging>
0.00059219

> <r_ionizer_Ionization_penalty_neutral>
0

> <i_mmod_Serial_Number-OPLS-2005>
181

> <i_i_glide_lignum>
179

> <r_i_docking_score>
-6.10809

> <r_i_glide_gscore>
-6.10809

> <r_i_glide_lipo>
-0.261527

> <r_i_glide_hbond>
-0.7

> <r_i_glide_metal>
0

> <r_i_glide_eburp>
-2.5

> <r_i_glide_evdw>
-19.793

> <r_i_glide_ecoul>
-4.62096

> <r_i_glide_erotb>
0

> <r_i_glide_esite>
-0.601031

> <r_i_glide_emodel>
-46.9711

> <r_i_glide_energy>
-24.4139

> <r_i_glide_einternal>
0.809028

> <i_i_glide_confnum>
1

> <i_i_glide_posenum>
4

$$$$
C09880
                    3D
 Structure written by MMmdl.
 26 27  0  0  1  0            999 V2000
    3.5032   -0.2703    2.7449 C   0  0  2  0  0  0
    2.0706    0.2176    3.1324 C   0  0  0  0  0  0
    3.9887    0.6391    3.8921 C   0  0  0  0  0  0
    3.9877    0.2903    1.4015 C   0  0  0  0  0  0
    2.8206    1.5494    3.4610 C   0  0  1  0  0  0
    0.9929    0.2538    2.0327 C   0  0  0  0  0  0
    1.3763   -0.5100    4.3043 C   0  0  0  0  0  0
    4.6095   -0.6700    0.4112 C   0  0  0  0  0  0
    3.1713    2.4645    2.2673 C   0  0  0  0  0  0
    3.8337    1.6125    1.1887 C   0  0  0  0  0  0
    3.6931   -1.3348    2.8874 H   0  0  0  0  0  0
    3.9105    0.2156    4.8929 H   0  0  0  0  0  0
    4.9806    1.0701    3.7469 H   0  0  0  0  0  0
    2.3757    2.0863    4.2995 H   0  0  0  0  0  0
    0.0980    0.7771    2.3710 H   0  0  0  0  0  0
    1.3149    0.7544    1.1219 H   0  0  0  0  0  0
    0.6908   -0.7524    1.7403 H   0  0  0  0  0  0
    0.4993    0.0404    4.6467 H   0  0  0  0  0  0
    1.0380   -1.5036    4.0081 H   0  0  0  0  0  0
    2.0084   -0.6531    5.1781 H   0  0  0  0  0  0
    5.4907   -1.1420    0.8461 H   0  0  0  0  0  0
    3.8958   -1.4497    0.1447 H   0  0  0  0  0  0
    4.9112   -0.1547   -0.5012 H   0  0  0  0  0  0
    2.2806    2.9433    1.8601 H   0  0  0  0  0  0
    3.8573    3.2560    2.5696 H   0  0  0  0  0  0
    4.1504    2.0883    0.2722 H   0  0  0  0  0  0
  1  2  1  0  0  0
  1  3  1  0  0  0
  1  4  1  0  0  0
  1 11  1  0  0  0
  2  5  1  0  0  0
  2  6  1  0  0  0
  2  7  1  0  0  0
  3  5  1  0  0  0
  3 12  1  0  0  0
  3 13  1  0  0  0
  4 10  2  0  0  0
  4  8  1  0  0  0
  5  9  1  0  0  0
  5 14  1  0  0  0
  6 15  1  0  0  0
  6 16  1  0  0  0
  6 17  1  0  0  0
  7 18  1  0  0  0
  7 19  1  0  0  0
  7 20  1  0  0  0
  8 21  1  0  0  0
  8 22  1  0  0  0
  8 23  1  0  0  0
  9 10  1  0  0  0
  9 24  1  0  0  0
  9 25  1  0  0  0
 10 26  1  0  0  0
M  END
> <i_ionizer_Ion_state_n>
0

> <i_ionizer_Tot_Q>
0

> <s_ionizer_Ion_centers>


> <s_ionizer_Ion_types>


> <s_ionizer_Ion_ctrs_in>


> <r_ionizer_Ionization_penalty>
0

> <r_ionizer_Ionization_penalty_charging>
0

> <r_ionizer_Ionization_penalty_neutral>
0

> <s_st_Chirality_1>
1_R_2_4_3_11

> <s_st_Chirality_2>
5_R_2_3_9_14

> <s_st_EZ_1>
1_4_10_9_Z

> <i_mmod_Serial_Number-OPLS-2005>
921

> <i_i_glide_lignum>
909

> <r_i_docking_score>
-6.10504

> <r_i_glide_gscore>
-6.10504

> <r_i_glide_lipo>
-0.975921

> <r_i_glide_hbond>
0

> <r_i_glide_metal>
0

> <r_i_glide_eburp>
-2.5

> <r_i_glide_evdw>
-21.6833

> <r_i_glide_ecoul>
0.0755284

> <r_i_glide_erotb>
0

> <r_i_glide_esite>
-0.902009

> <r_i_glide_emodel>
-26.4516

> <r_i_glide_energy>
-21.6078

> <r_i_glide_einternal>
0

> <i_i_glide_confnum>
1

> <i_i_glide_posenum>
594

$$$$
C01083
                    3D
 Structure written by MMmdl.
 45 46  0  0  1  0            999 V2000
    0.9169    4.2745    2.5803 C   0  0  1  0  0  0
    0.9924    2.9476    2.0844 O   0  0  0  0  0  0
    1.7782    5.2321    1.9946 O   0  0  0  0  0  0
   -0.5184    4.8005    2.8443 C   0  0  1  0  0  0
    2.2110    2.4579    1.5706 C   0  0  1  0  0  0
    1.2956    5.9755    0.8614 C   0  0  1  0  0  0
   -1.0670    5.6949    1.7176 C   0  0  2  0  0  0
   -1.3915    3.7039    3.0999 O   0  0  0  0  0  0
    3.3195    2.6818    2.4232 O   0  0  0  0  0  0
    2.0745    0.9595    1.1829 C   0  0  1  0  0  0
   -0.0008    6.7109    1.2713 C   0  0  2  0  0  0
    2.4600    6.8938    0.4388 C   0  0  0  0  0  0
   -2.2254    6.3819    2.1864 O   0  0  0  0  0  0
    3.5458    1.6850    3.4242 C   0  0  1  0  0  0
    3.4452    0.2602    1.2824 C   0  0  2  0  0  0
    1.0982    0.3143    2.0016 O   0  0  0  0  0  0
   -0.5055    7.4993    0.1964 O   0  0  0  0  0  0
    3.6999    6.2025    0.3340 O   0  0  0  0  0  0
    4.0312    0.3916    2.7133 C   0  0  2  0  0  0
    4.5590    2.2749    4.4201 C   0  0  0  0  0  0
    4.3416    0.8122    0.3196 O   0  0  0  0  0  0
    3.7001   -0.7510    3.4995 O   0  0  0  0  0  0
    5.0306    1.3061    5.3495 O   0  0  0  0  0  0
    1.3766    4.1380    3.5674 H   0  0  0  0  0  0
   -0.4635    5.4098    3.7480 H   0  0  0  0  0  0
    2.4330    3.0384    0.6708 H   0  0  0  0  0  0
    1.0788    5.3005    0.0384 H   0  0  0  0  0  0
   -1.3599    5.0846    0.8638 H   0  0  0  0  0  0
   -1.4039    3.1406    2.3135 H   0  0  0  0  0  0
    1.7118    0.9124    0.1552 H   0  0  0  0  0  0
    0.2296    7.3798    2.1021 H   0  0  0  0  0  0
    2.2371    7.3805   -0.5111 H   0  0  0  0  0  0
    2.5799    7.6878    1.1767 H   0  0  0  0  0  0
   -2.6325    6.8407    1.4387 H   0  0  0  0  0  0
    2.6032    1.5083    3.9462 H   0  0  0  0  0  0
    3.3254   -0.7951    1.0329 H   0  0  0  0  0  0
    1.4010    0.3349    2.9193 H   0  0  0  0  0  0
   -0.3390    8.4310    0.3928 H   0  0  0  0  0  0
    3.6678    5.6252   -0.4410 H   0  0  0  0  0  0
    5.1188    0.4208    2.6319 H   0  0  0  0  0  0
    5.4117    2.6948    3.8857 H   0  0  0  0  0  0
    4.1001    3.0957    4.9721 H   0  0  0  0  0  0
    4.2014    0.3657   -0.5267 H   0  0  0  0  0  0
    4.3831   -0.8727    4.1729 H   0  0  0  0  0  0
    5.6356    0.7075    4.8899 H   0  0  0  0  0  0
  1  2  1  0  0  0
  1  3  1  0  0  0
  1  4  1  0  0  0
  1 24  1  0  0  0
  2  5  1  0  0  0
  3  6  1  0  0  0
  4  7  1  0  0  0
  4  8  1  0  0  0
  4 25  1  0  0  0
  5  9  1  0  0  0
  5 10  1  0  0  0
  5 26  1  0  0  0
  6 11  1  0  0  0
  6 12  1  0  0  0
  6 27  1  0  0  0
  7 13  1  0  0  0
  7 11  1  0  0  0
  7 28  1  0  0  0
  8 29  1  0  0  0
  9 14  1  0  0  0
 10 15  1  0  0  0
 10 16  1  0  0  0
 10 30  1  0  0  0
 11 17  1  0  0  0
 11 31  1  0  0  0
 12 18  1  0  0  0
 12 32  1  0  0  0
 12 33  1  0  0  0
 13 34  1  0  0  0
 14 19  1  0  0  0
 14 20  1  0  0  0
 14 35  1  0  0  0
 15 21  1  0  0  0
 15 19  1  0  0  0
 15 36  1  0  0  0
 16 37  1  0  0  0
 17 38  1  0  0  0
 18 39  1  0  0  0
 19 22  1  0  0  0
 19 40  1  0  0  0
 20 23  1  0  0  0
 20 41  1  0  0  0
 20 42  1  0  0  0
 21 43  1  0  0  0
 22 44  1  0  0  0
 23 45  1  0  0  0
M  END
> <i_ionizer_Ion_state_n>
0

> <i_ionizer_Tot_Q>
0

> <s_ionizer_Ion_centers>


> <s_ionizer_Ion_types>


> <s_ionizer_Ion_ctrs_in>


> <r_ionizer_Ionization_penalty>
0

> <r_ionizer_Ionization_penalty_charging>
0

> <r_ionizer_Ionization_penalty_neutral>
0

> <s_st_Chirality_1>
1_R_2_3_4_24

> <s_st_Chirality_2>
4_R_8_1_7_25

> <s_st_Chirality_3>
5_R_2_9_10_26

> <s_st_Chirality_4>
6_R_3_11_12_27

> <s_st_Chirality_5>
7_S_13_4_11_28

> <s_st_Chirality_6>
10_R_16_5_15_30

> <s_st_Chirality_7>
11_R_17_7_6_31

> <s_st_Chirality_8>
14_R_9_19_20_35

> <s_st_Chirality_9>
15_S_21_10_19_36

> <s_st_Chirality_10>
19_R_22_15_14_40

> <i_mmod_Serial_Number-OPLS-2005>
388

> <i_i_glide_lignum>
384

> <r_i_docking_score>
-6.10021

> <r_i_glide_gscore>
-6.10021

> <r_i_glide_lipo>
-0.919113

> <r_i_glide_hbond>
-1.58197

> <r_i_glide_metal>
0

> <r_i_glide_eburp>
-1.19468

> <r_i_glide_evdw>
-17.9909

> <r_i_glide_ecoul>
-14.8149

> <r_i_glide_erotb>
0.739756

> <r_i_glide_esite>
-0.223444

> <r_i_glide_emodel>
-52.3654

> <r_i_glide_energy>
-32.8058

> <r_i_glide_einternal>
9.16605

> <i_i_glide_confnum>
13

> <i_i_glide_posenum>
312

$$$$
C00519
                    3D
 Structure written by MMmdl.
 13 12  0  0  1  0            999 V2000
    0.9915    1.0696    4.2341 C   0  0  0  0  0  0
    1.0394    2.7693    3.5001 S   0  0  0  0  0  0
    2.4367    0.5812    4.3736 C   0  0  0  0  0  0
    1.3170    2.5940    2.0064 O   0  0  0  0  0  0
    0.4104    0.4161    3.5827 H   0  0  0  0  0  0
    0.4896    1.1128    5.2012 H   0  0  0  0  0  0
    2.8897    0.4525    3.3899 H   0  0  0  0  0  0
    3.0351    1.3174    4.9115 H   0  0  0  0  0  0
    3.4608   -0.9972    5.1730 H   0  0  0  0  0  0
    2.1070   -0.5846    6.0197 H   0  0  0  0  0  0
   -0.2915    3.4360    3.8514 O   0  5  0  0  0  0
    2.4986   -0.6999    5.0959 N   0  3  0  0  0  0
    1.9704   -1.3969    4.5907 H   0  0  0  0  0  0
  1  2  1  0  0  0
  1  3  1  0  0  0
  1  5  1  0  0  0
  1  6  1  0  0  0
  2  4  2  0  0  0
  2 11  1  0  0  0
  3  7  1  0  0  0
  3  8  1  0  0  0
  3 12  1  0  0  0
  9 12  1  0  0  0
 10 12  1  0  0  0
 12 13  1  0  0  0
M  CHG  2  11  -1  12   1
M  END
> <i_ionizer_Ion_state_n>
3

> <i_ionizer_Tot_Q>
0

> <s_ionizer_Ion_centers>
11_12

> <s_ionizer_Ion_types>
OM_N5

> <s_ionizer_Ion_ctrs_in>
4_6

> <r_ionizer_Ionization_penalty>
0.000193256

> <r_ionizer_Ionization_penalty_charging>
0.000193256

> <r_ionizer_Ionization_penalty_neutral>
0

> <i_mmod_Serial_Number-OPLS-2005>
266

> <i_i_glide_lignum>
264

> <r_i_docking_score>
-6.09687

> <r_i_glide_gscore>
-6.09687

> <r_i_glide_lipo>
-0.180442

> <r_i_glide_hbond>
-1.7

> <r_i_glide_metal>
0

> <r_i_glide_eburp>
-2.5

> <r_i_glide_evdw>
-6.41978

> <r_i_glide_ecoul>
-9.46349

> <r_i_glide_erotb>
0

> <r_i_glide_esite>
-0.256497

> <r_i_glide_emodel>
-36.6075

> <r_i_glide_energy>
-15.8833

> <r_i_glide_einternal>
0.94957

> <i_i_glide_confnum>
1

> <i_i_glide_posenum>
215

$$$$
C00601
                    3D
 Structure written by MMmdl.
 17 17  0  0  1  0            999 V2000
    1.9274    1.8507    3.0986 C   0  0  0  0  0  0
    2.6065    1.2519    4.1808 C   0  0  0  0  0  0
    1.0229    1.0862    2.3316 C   0  0  0  0  0  0
    2.1730    3.3080    2.7577 C   0  0  0  0  0  0
    2.3791   -0.1020    4.4961 C   0  0  0  0  0  0
    0.7962   -0.2676    2.6477 C   0  0  0  0  0  0
    0.9731    4.1869    3.1002 C   0  0  0  0  0  0
    1.4739   -0.8617    3.7300 C   0  0  0  0  0  0
    0.1002    3.7820    3.8647 O   0  0  0  0  0  0
    3.3021    1.8293    4.7723 H   0  0  0  0  0  0
    0.5000    1.5361    1.5002 H   0  0  0  0  0  0
    3.0471    3.6682    3.3008 H   0  0  0  0  0  0
    2.3938    3.4024    1.6941 H   0  0  0  0  0  0
    2.8994   -0.5577    5.3257 H   0  0  0  0  0  0
    0.1026   -0.8504    2.0597 H   0  0  0  0  0  0
    0.9472    5.1711    2.6312 H   0  0  0  0  0  0
    1.2999   -1.8999    3.9720 H   0  0  0  0  0  0
  1  2  2  0  0  0
  1  3  1  0  0  0
  1  4  1  0  0  0
  2  5  1  0  0  0
  2 10  1  0  0  0
  3  6  2  0  0  0
  3 11  1  0  0  0
  4  7  1  0  0  0
  4 12  1  0  0  0
  4 13  1  0  0  0
  5  8  2  0  0  0
  5 14  1  0  0  0
  6  8  1  0  0  0
  6 15  1  0  0  0
  7  9  2  0  0  0
  7 16  1  0  0  0
  8 17  1  0  0  0
M  END
> <i_ionizer_Ion_state_n>
0

> <i_ionizer_Tot_Q>
0

> <s_ionizer_Ion_centers>


> <s_ionizer_Ion_types>


> <s_ionizer_Ion_ctrs_in>


> <r_ionizer_Ionization_penalty>
0

> <r_ionizer_Ionization_penalty_charging>
0

> <r_ionizer_Ionization_penalty_neutral>
0

> <i_mmod_Serial_Number-OPLS-2005>
291

> <i_i_glide_lignum>
289

> <r_i_docking_score>
-6.09673

> <r_i_glide_gscore>
-6.09673

> <r_i_glide_lipo>
-0.690521

> <r_i_glide_hbond>
-0.5

> <r_i_glide_metal>
0

> <r_i_glide_eburp>
-2.5

> <r_i_glide_evdw>
-16.7478

> <r_i_glide_ecoul>
-3.8453

> <r_i_glide_erotb>
0

> <r_i_glide_esite>
-0.681859

> <r_i_glide_emodel>
-27.189

> <r_i_glide_energy>
-20.5931

> <r_i_glide_einternal>
0.913064

> <i_i_glide_confnum>
1

> <i_i_glide_posenum>
944

$$$$
C05594
                    3D
 Structure written by MMmdl.
 25 25  0  0  1  0            999 V2000
    3.5477    1.2857    2.9758 C   0  0  0  0  0  0
    3.5799    2.5430    3.6143 C   0  0  0  0  0  0
    3.7150    0.0127    3.7927 C   0  0  2  0  0  0
    3.3740    1.2259    1.5773 C   0  0  0  0  0  0
    3.4248    3.7362    2.8794 C   0  0  0  0  0  0
    2.4421   -0.3131    4.5921 C   0  0  0  0  0  0
    4.7972    0.1000    4.6978 O   0  0  0  0  0  0
    3.2385    2.4103    0.8301 C   0  0  0  0  0  0
    3.2690    3.6654    1.4701 C   0  0  0  0  0  0
    3.4727    4.9167    3.5847 O   0  0  0  0  0  0
    1.3965   -0.6779    3.7143 O   0  0  0  0  0  0
    3.1751    4.7895    0.7000 O   0  0  0  0  0  0
    4.5004    5.0313    4.5591 C   0  0  0  0  0  0
    3.7172    2.5992    4.6843 H   0  0  0  0  0  0
    3.9287   -0.8063    3.1039 H   0  0  0  0  0  0
    3.3528    0.2712    1.0722 H   0  0  0  0  0  0
    2.6184   -1.1005    5.3263 H   0  0  0  0  0  0
    2.1108    0.5695    5.1407 H   0  0  0  0  0  0
    4.8962   -0.7446    5.1115 H   0  0  0  0  0  0
    3.1197    2.3500   -0.2418 H   0  0  0  0  0  0
    0.6790   -1.0200    4.2261 H   0  0  0  0  0  0
    3.4424    4.6504   -0.1953 H   0  0  0  0  0  0
    4.7895    6.0778    4.6537 H   0  0  0  0  0  0
    4.1510    4.7004    5.5371 H   0  0  0  0  0  0
    5.3936    4.4648    4.2898 H   0  0  0  0  0  0
  1  2  1  0  0  0
  1  3  1  0  0  0
  1  4  2  0  0  0
  2  5  2  0  0  0
  2 14  1  0  0  0
  3  6  1  0  0  0
  3  7  1  0  0  0
  3 15  1  0  0  0
  4  8  1  0  0  0
  4 16  1  0  0  0
  5  9  1  0  0  0
  5 10  1  0  0  0
  6 11  1  0  0  0
  6 17  1  0  0  0
  6 18  1  0  0  0
  7 19  1  0  0  0
  8  9  2  0  0  0
  8 20  1  0  0  0
  9 12  1  0  0  0
 10 13  1  0  0  0
 11 21  1  0  0  0
 12 22  1  0  0  0
 13 23  1  0  0  0
 13 24  1  0  0  0
 13 25  1  0  0  0
M  END
> <i_ionizer_Ion_state_n>
0

> <i_ionizer_Tot_Q>
0

> <s_ionizer_Ion_centers>


> <s_ionizer_Ion_types>


> <s_ionizer_Ion_ctrs_in>


> <r_ionizer_Ionization_penalty>
0.00059219

> <r_ionizer_Ionization_penalty_charging>
0

> <r_ionizer_Ionization_penalty_neutral>
0.00059219

> <s_st_Chirality_1>
3_R_7_6_1_15

> <i_mmod_Serial_Number-OPLS-2005>
757

> <i_i_glide_lignum>
748

> <r_i_docking_score>
-6.0929

> <r_i_glide_gscore>
-6.0929

> <r_i_glide_lipo>
-0.786855

> <r_i_glide_hbond>
-0.9

> <r_i_glide_metal>
0

> <r_i_glide_eburp>
-2.39247

> <r_i_glide_evdw>
-20.0269

> <r_i_glide_ecoul>
-9.64318

> <r_i_glide_erotb>
1.06979

> <r_i_glide_esite>
-0.516888

> <r_i_glide_emodel>
-38.3128

> <r_i_glide_energy>
-29.6701

> <r_i_glide_einternal>
2.03576

> <i_i_glide_confnum>
2

> <i_i_glide_posenum>
984

$$$$
C00270
                    3D
 Structure written by MMmdl.
 39 39  0  0  1  0            999 V2000
    3.7210    1.8335    1.7746 C   0  0  1  0  0  0
    4.3695    1.2682    3.0674 C   0  0  1  0  0  0
    4.0098    3.2272    1.6039 O   0  0  0  0  0  0
    4.1204    1.0981    0.4681 C   0  0  1  0  0  0
    4.0212    2.1788    4.2580 C   0  0  2  0  0  0
    3.8503   -0.0756    3.3266 N   0  0  0  0  0  0
    3.6541    4.1010    2.6427 C   0  0  2  0  0  0
    5.6457    0.8759    0.3144 C   0  0  1  0  0  0
    3.4275   -0.1362    0.4076 O   0  0  0  0  0  0
    4.3838    3.6355    3.9262 C   0  0  0  0  0  0
    4.7838    1.8019    5.3884 O   0  0  0  0  0  0
    2.5670   -0.3916    3.5548 C   0  0  0  0  0  0
    2.0658    4.1951    2.8110 C   0  0  0  0  0  0
    4.0918    5.4055    2.3435 O   0  0  0  0  0  0
    6.0084   -0.1735   -0.7551 C   0  0  0  0  0  0
    6.2359    2.0927   -0.0991 O   0  0  0  0  0  0
    1.6952    0.7184    4.1303 C   0  0  0  0  0  0
    2.0815   -1.4975    3.3214 O   0  0  0  0  0  0
    1.6491    4.7396    3.8570 O   0  0  0  0  0  0
    5.3299   -1.3864   -0.4970 O   0  0  0  0  0  0
    2.6417    1.7215    1.8804 H   0  0  0  0  0  0
    5.4552    1.2552    2.9546 H   0  0  0  0  0  0
    3.7775    1.6886   -0.3821 H   0  0  0  0  0  0
    2.9636    2.0938    4.5110 H   0  0  0  0  0  0
    4.5231   -0.8278    3.3067 H   0  0  0  0  0  0
    6.0728    0.5832    1.2749 H   0  0  0  0  0  0
    3.6137   -0.5490   -0.4211 H   0  0  0  0  0  0
    4.1303    4.3001    4.7536 H   0  0  0  0  0  0
    5.4587    3.7285    3.7610 H   0  0  0  0  0  0
    5.6968    1.7961    5.1445 H   0  0  0  0  0  0
    5.0004    5.3437    2.0915 H   0  0  0  0  0  0
    5.7049    0.1616   -1.7469 H   0  0  0  0  0  0
    7.0845   -0.3487   -0.7906 H   0  0  0  0  0  0
    5.9223    2.7762    0.4739 H   0  0  0  0  0  0
    0.6754    0.3667    4.2895 H   0  0  0  0  0  0
    2.0926    1.0574    5.0873 H   0  0  0  0  0  0
    1.6609    1.5679    3.4477 H   0  0  0  0  0  0
    4.5112   -1.3807   -0.9691 H   0  0  0  0  0  0
    1.3787    3.6757    1.9036 O   0  5  0  0  0  0
  1  2  1  0  0  0
  1  3  1  0  0  0
  1  4  1  0  0  0
  1 21  1  0  0  0
  2  5  1  0  0  0
  2  6  1  0  0  0
  2 22  1  0  0  0
  3  7  1  0  0  0
  4  8  1  0  0  0
  4  9  1  0  0  0
  4 23  1  0  0  0
  5 10  1  0  0  0
  5 11  1  0  0  0
  5 24  1  0  0  0
  6 12  1  0  0  0
  6 25  1  0  0  0
  7 13  1  0  0  0
  7 14  1  0  0  0
  7 10  1  0  0  0
  8 15  1  0  0  0
  8 16  1  0  0  0
  8 26  1  0  0  0
  9 27  1  0  0  0
 10 28  1  0  0  0
 10 29  1  0  0  0
 11 30  1  0  0  0
 12 17  1  0  0  0
 12 18  2  0  0  0
 13 19  2  0  0  0
 13 39  1  0  0  0
 14 31  1  0  0  0
 15 20  1  0  0  0
 15 32  1  0  0  0
 15 33  1  0  0  0
 16 34  1  0  0  0
 17 35  1  0  0  0
 17 36  1  0  0  0
 17 37  1  0  0  0
 20 38  1  0  0  0
M  CHG  1  39  -1
M  END
> <i_ionizer_Ion_state_n>
1

> <i_ionizer_Tot_Q>
-1

> <s_ionizer_Ion_centers>
39

> <s_ionizer_Ion_types>
OM

> <s_ionizer_Ion_ctrs_in>
19

> <r_ionizer_Ionization_penalty>
0.00059219

> <r_ionizer_Ionization_penalty_charging>
0.00059219

> <r_ionizer_Ionization_penalty_neutral>
0

> <s_st_Chirality_1>
1_R_3_4_2_21

> <s_st_Chirality_2>
2_R_6_1_5_22

> <s_st_Chirality_3>
4_S_9_8_1_23

> <s_st_Chirality_4>
5_S_11_2_10_24

> <s_st_Chirality_5>
8_R_16_4_15_26

> <s_st_Chirality_6>
7_R_3_14_13_10

> <i_mmod_Serial_Number-OPLS-2005>
174

> <i_i_glide_lignum>
172

> <r_i_docking_score>
-6.08526

> <r_i_glide_gscore>
-6.08526

> <r_i_glide_lipo>
-0.74047

> <r_i_glide_hbond>
-1.16649

> <r_i_glide_metal>
0

> <r_i_glide_eburp>
-1.45252

> <r_i_glide_evdw>
-20.5845

> <r_i_glide_ecoul>
-11.2102

> <r_i_glide_erotb>
0.889909

> <r_i_glide_esite>
-0.84791

> <r_i_glide_emodel>
-47.2695

> <r_i_glide_energy>
-31.7947

> <r_i_glide_einternal>
13.0903

> <i_i_glide_confnum>
3

> <i_i_glide_posenum>
322

$$$$
C05401
                    3D
 Structure written by MMmdl.
 35 35  0  0  1  0            999 V2000
    4.5677    0.8253    1.8186 C   0  0  2  0  0  0
    3.4026   -0.1648    1.5851 C   0  0  1  0  0  0
    4.1655    1.8449    2.7402 O   0  0  0  0  0  0
    5.0775    1.4899    0.5293 C   0  0  0  0  0  0
    2.8434   -0.6690    2.9277 C   0  0  1  0  0  0
    2.3867    0.4469    0.8095 O   0  0  0  0  0  0
    3.7466    1.4124    4.0027 C   0  0  1  0  0  0
    6.0109    0.6267   -0.0998 O   0  0  0  0  0  0
    2.4954    0.5195    3.8422 C   0  0  2  0  0  0
    1.6989   -1.4675    2.6897 O   0  0  0  0  0  0
    4.7646    0.7375    4.7123 O   0  0  0  0  0  0
    5.4949   -0.6763   -0.3192 C   0  0  0  0  0  0
    2.0281    0.0642    5.0988 O   0  0  0  0  0  0
    6.2418   -1.3236   -1.4981 C   0  0  1  0  0  0
    7.7459   -1.4759   -1.2076 C   0  0  0  0  0  0
    5.7012   -2.6151   -1.6993 O   0  0  0  0  0  0
    8.3116   -0.2330   -0.8453 O   0  0  0  0  0  0
    5.3993    0.2661    2.2504 H   0  0  0  0  0  0
    3.7675   -1.0167    1.0097 H   0  0  0  0  0  0
    4.2425    1.6643   -0.1511 H   0  0  0  0  0  0
    5.5319    2.4575    0.7481 H   0  0  0  0  0  0
    3.5900   -1.2999    3.4123 H   0  0  0  0  0  0
    2.7431    0.6082   -0.0519 H   0  0  0  0  0  0
    3.5034    2.3045    4.5807 H   0  0  0  0  0  0
    1.7093    1.1245    3.3877 H   0  0  0  0  0  0
    1.2433   -1.5714    3.5121 H   0  0  0  0  0  0
    4.5949   -0.1901    4.6416 H   0  0  0  0  0  0
    5.6589   -1.2611    0.5873 H   0  0  0  0  0  0
    4.4181   -0.6550   -0.4977 H   0  0  0  0  0  0
    2.6817   -0.5066    5.4741 H   0  0  0  0  0  0
    6.1000   -0.7166   -2.3937 H   0  0  0  0  0  0
    7.8987   -2.1571   -0.3699 H   0  0  0  0  0  0
    8.2787   -1.8957   -2.0619 H   0  0  0  0  0  0
    4.7775   -2.5298   -1.8771 H   0  0  0  0  0  0
    9.2205   -0.3679   -0.6256 H   0  0  0  0  0  0
  1  2  1  0  0  0
  1  3  1  0  0  0
  1  4  1  0  0  0
  1 18  1  0  0  0
  2  5  1  0  0  0
  2  6  1  0  0  0
  2 19  1  0  0  0
  3  7  1  0  0  0
  4  8  1  0  0  0
  4 20  1  0  0  0
  4 21  1  0  0  0
  5  9  1  0  0  0
  5 10  1  0  0  0
  5 22  1  0  0  0
  6 23  1  0  0  0
  7 11  1  0  0  0
  7  9  1  0  0  0
  7 24  1  0  0  0
  8 12  1  0  0  0
  9 13  1  0  0  0
  9 25  1  0  0  0
 10 26  1  0  0  0
 11 27  1  0  0  0
 12 14  1  0  0  0
 12 28  1  0  0  0
 12 29  1  0  0  0
 13 30  1  0  0  0
 14 15  1  0  0  0
 14 16  1  0  0  0
 14 31  1  0  0  0
 15 17  1  0  0  0
 15 32  1  0  0  0
 15 33  1  0  0  0
 16 34  1  0  0  0
 17 35  1  0  0  0
M  END
> <i_ionizer_Ion_state_n>
0

> <i_ionizer_Tot_Q>
0

> <s_ionizer_Ion_centers>


> <s_ionizer_Ion_types>


> <s_ionizer_Ion_ctrs_in>


> <r_ionizer_Ionization_penalty>
0

> <r_ionizer_Ionization_penalty_charging>
0

> <r_ionizer_Ionization_penalty_neutral>
0

> <s_st_Chirality_1>
1_R_3_2_4_18

> <s_st_Chirality_2>
2_S_6_5_1_19

> <s_st_Chirality_3>
5_S_10_9_2_22

> <s_st_Chirality_4>
7_S_3_11_9_24

> <s_st_Chirality_5>
9_R_13_7_5_25

> <s_st_Chirality_6>
14_R_16_12_15_31

> <i_mmod_Serial_Number-OPLS-2005>
685

> <i_i_glide_lignum>
678

> <r_i_docking_score>
-6.07402

> <r_i_glide_gscore>
-6.07402

> <r_i_glide_lipo>
-0.825656

> <r_i_glide_hbond>
-0.895662

> <r_i_glide_metal>
0

> <r_i_glide_eburp>
-1.86183

> <r_i_glide_evdw>
-24.3352

> <r_i_glide_ecoul>
-15.2034

> <r_i_glide_erotb>
1.5545

> <r_i_glide_esite>
-0.578217

> <r_i_glide_emodel>
-51.8849

> <r_i_glide_energy>
-39.5386

> <r_i_glide_einternal>
8.33926

> <i_i_glide_confnum>
111

> <i_i_glide_posenum>
841

$$$$
C00978
                    3D
 Structure written by MMmdl.
 30 31  0  0  1  0            999 V2000
    1.9324    2.5049    3.4564 C   0  0  0  0  0  0
    2.8423    3.5432    3.0999 C   0  0  0  0  0  0
    2.6978    1.3763    3.9180 C   0  0  0  0  0  0
    0.5518    2.7723    3.2977 C   0  0  0  0  0  0
    4.1010    3.0338    3.3470 N   0  0  0  0  0  0
    2.4021    4.7857    2.6091 C   0  0  0  0  0  0
    4.0176    1.7416    3.8353 C   0  0  0  0  0  0
    2.1703    0.0591    4.3992 C   0  0  0  0  0  0
    0.0992    4.0141    2.8068 C   0  0  0  0  0  0
    1.0228    5.0210    2.4622 C   0  0  0  0  0  0
    1.6897   -0.8272    3.2425 C   0  0  0  0  0  0
   -1.2391    4.2379    2.6665 O   0  0  0  0  0  0
    2.7792   -1.1000    2.3154 N   0  0  0  0  0  0
    3.1295   -0.2930    1.3045 C   0  0  0  0  0  0
    4.3115   -0.7471    0.4554 C   0  0  0  0  0  0
    2.5521    0.7625    1.0471 O   0  0  0  0  0  0
   -0.1669    2.0095    3.5587 H   0  0  0  0  0  0
    4.9770    3.5148    3.2016 H   0  0  0  0  0  0
    3.1157    5.5528    2.3474 H   0  0  0  0  0  0
    4.9083    1.1840    4.0863 H   0  0  0  0  0  0
    2.9462   -0.4630    4.9605 H   0  0  0  0  0  0
    1.3499    0.2208    5.0998 H   0  0  0  0  0  0
    0.6785    5.9733    2.0859 H   0  0  0  0  0  0
    1.2996   -1.7699    3.6302 H   0  0  0  0  0  0
    0.8750   -0.3369    2.7068 H   0  0  0  0  0  0
   -1.4376    5.0097    2.1589 H   0  0  0  0  0  0
    3.2999   -1.9543    2.4507 H   0  0  0  0  0  0
    4.5176   -0.0272   -0.3374 H   0  0  0  0  0  0
    5.2072   -0.8441    1.0694 H   0  0  0  0  0  0
    4.1009   -1.7120   -0.0065 H   0  0  0  0  0  0
  1  2  2  0  0  0
  1  3  1  0  0  0
  1  4  1  0  0  0
  2  5  1  0  0  0
  2  6  1  0  0  0
  3  7  2  0  0  0
  3  8  1  0  0  0
  4  9  2  0  0  0
  4 17  1  0  0  0
  5  7  1  0  0  0
  5 18  1  0  0  0
  6 10  2  0  0  0
  6 19  1  0  0  0
  7 20  1  0  0  0
  8 11  1  0  0  0
  8 21  1  0  0  0
  8 22  1  0  0  0
  9 12  1  0  0  0
  9 10  1  0  0  0
 10 23  1  0  0  0
 11 13  1  0  0  0
 11 24  1  0  0  0
 11 25  1  0  0  0
 12 26  1  0  0  0
 13 14  1  0  0  0
 13 27  1  0  0  0
 14 15  1  0  0  0
 14 16  2  0  0  0
 15 28  1  0  0  0
 15 29  1  0  0  0
 15 30  1  0  0  0
M  END
> <i_ionizer_Ion_state_n>
0

> <i_ionizer_Tot_Q>
0

> <s_ionizer_Ion_centers>


> <s_ionizer_Ion_types>


> <s_ionizer_Ion_ctrs_in>


> <r_ionizer_Ionization_penalty>
0.00059219

> <r_ionizer_Ionization_penalty_charging>
0

> <r_ionizer_Ionization_penalty_neutral>
0.00059219

> <i_mmod_Serial_Number-OPLS-2005>
368

> <i_i_glide_lignum>
364

> <r_i_docking_score>
-6.07214

> <r_i_glide_gscore>
-6.07214

> <r_i_glide_lipo>
-0.997309

> <r_i_glide_hbond>
-0.5

> <r_i_glide_metal>
0

> <r_i_glide_eburp>
-2.13441

> <r_i_glide_evdw>
-27.9181

> <r_i_glide_ecoul>
-3.95345

> <r_i_glide_erotb>
1.20929

> <r_i_glide_esite>
-1.02092

> <r_i_glide_emodel>
-46.0759

> <r_i_glide_energy>
-31.8715

> <r_i_glide_einternal>
0.599238

> <i_i_glide_confnum>
14

> <i_i_glide_posenum>
698

$$$$
C03345
                    3D
 Structure written by MMmdl.
 92 94  0  0  1  0            999 V2000
   -0.5875   17.8198   -2.1985 N   0  0  0  0  0  0
   -1.6738   18.7154   -2.7048 C   0  0  1  0  0  0
    0.7601   18.0005   -2.4150 C   0  0  0  0  0  0
   -0.6747   16.6724   -1.4367 C   0  0  0  0  0  0
   -2.5268   17.9709   -3.7421 C   0  0  1  0  0  0
   -2.5161   19.0337   -1.6302 O   0  0  0  0  0  0
    1.4056   16.9031   -1.7839 C   0  0  0  0  0  0
    1.3776   19.0026   -3.1064 N   0  0  0  0  0  0
    0.4645   16.0925   -1.1650 N   0  0  0  0  0  0
   -3.9277   18.4019   -3.3542 C   0  0  1  0  0  0
   -2.2967   18.3565   -5.0805 O   0  0  0  0  0  0
   -3.8213   18.4830   -1.8254 C   0  0  1  0  0  0
    2.8162   16.8626   -1.9121 C   0  0  0  0  0  0
    2.7019   18.8311   -3.1417 C   0  0  0  0  0  0
   -4.1443   19.6998   -3.9086 O   0  0  0  0  0  0
   -3.9006   17.1242   -1.1056 C   0  0  0  0  0  0
    3.4333   17.8495   -2.6030 N   0  0  0  0  0  0
    3.5696   15.8896   -1.3833 N   0  0  0  0  0  0
   -5.2040   19.8319   -5.3511 P   0  0  0  0  0  0
   -3.7058   17.2603    0.2872 O   0  0  0  0  0  0
   -5.5418   21.3379   -5.4039 O   0  0  0  0  0  0
   -4.7075   16.4511    1.4023 P   0  0  0  0  0  0
   -3.6542   15.5836    2.4241 O   0  0  0  0  0  0
   -5.4134   17.4689    2.2146 O   0  0  0  0  0  0
   -2.7380   15.8909    3.8270 P   0  0  0  0  0  0
   -2.5171   14.3444    4.5115 O   0  0  0  0  0  0
   -1.4081   16.4074    3.4330 O   0  0  0  0  0  0
   -3.5785   13.6343    5.1259 C   0  0  0  0  0  0
   -3.1973   12.1625    5.4396 C   0  0  0  0  0  0
   -2.7420   11.4725    4.1088 C   0  0  2  0  0  0
   -2.0860   12.1504    6.5129 C   0  0  0  0  0  0
   -4.4338   11.4339    6.0150 C   0  0  0  0  0  0
   -2.3114    9.9994    4.2432 C   0  0  0  0  0  0
   -1.6876   12.1968    3.4997 O   0  0  0  0  0  0
   -2.2193    9.3005    3.1021 N   0  0  0  0  0  0
   -2.0436    9.5163    5.3440 O   0  0  0  0  0  0
   -1.6253    7.9750    2.9945 C   0  0  0  0  0  0
   -0.6658    7.9093    1.7935 C   0  0  0  0  0  0
    0.0168    6.5463    1.6403 C   0  0  0  0  0  0
    1.2441    6.5565    1.1012 N   0  0  0  0  0  0
   -0.5515    5.5132    1.9948 O   0  0  0  0  0  0
    2.0167    5.3597    0.7976 C   0  0  0  0  0  0
    1.8625    4.3177    1.9111 C   0  0  0  0  0  0
    2.8189    2.8158    1.5455 S   0  0  0  0  0  0
    2.1036    1.6835    2.7780 C   0  0  0  0  0  0
    2.9997    1.0665    3.7947 C   0  0  0  0  0  0
    0.8938    1.4528    2.7431 O   0  0  0  0  0  0
    4.2852    1.4837    3.8671 C   0  0  0  0  0  0
    2.3836   -0.0054    4.6888 C   0  0  0  0  0  0
    5.3628    1.0093    4.8252 C   0  0  0  0  0  0
   -1.1694   19.6056   -3.0825 H   0  0  0  0  0  0
   -1.6150   16.2666   -1.0930 H   0  0  0  0  0  0
   -2.4053   16.8943   -3.6244 H   0  0  0  0  0  0
   -4.6862   17.7004   -3.7035 H   0  0  0  0  0  0
   -1.3851   18.1623   -5.2550 H   0  0  0  0  0  0
   -4.5733   19.1410   -1.3934 H   0  0  0  0  0  0
    3.2551   19.5852   -3.6817 H   0  0  0  0  0  0
   -4.8650   16.6545   -1.2691 H   0  0  0  0  0  0
   -3.1504   16.4502   -1.5194 H   0  0  0  0  0  0
    4.5708   15.9038   -1.5080 H   0  0  0  0  0  0
    3.1249   15.1342   -0.8816 H   0  0  0  0  0  0
   -3.8856   14.1514    6.0360 H   0  0  0  0  0  0
   -4.4324   13.6791    4.4495 H   0  0  0  0  0  0
   -3.5757   11.5101    3.4053 H   0  0  0  0  0  0
   -1.8191   11.1406    6.8227 H   0  0  0  0  0  0
   -1.1776   12.6418    6.1640 H   0  0  0  0  0  0
   -2.4136   12.6752    7.4089 H   0  0  0  0  0  0
   -4.2128   10.4035    6.2933 H   0  0  0  0  0  0
   -4.8002   11.9237    6.9176 H   0  0  0  0  0  0
   -5.2533   11.4140    5.2961 H   0  0  0  0  0  0
   -1.6410   11.9518    2.5887 H   0  0  0  0  0  0
   -2.5959    9.7098    2.2595 H   0  0  0  0  0  0
   -1.0924    7.7452    3.9190 H   0  0  0  0  0  0
   -2.4210    7.2354    2.8867 H   0  0  0  0  0  0
   -1.2067    8.1278    0.8720 H   0  0  0  0  0  0
    0.1015    8.6781    1.8985 H   0  0  0  0  0  0
    1.6674    7.4480    0.8880 H   0  0  0  0  0  0
    1.6805    4.9430   -0.1533 H   0  0  0  0  0  0
    3.0678    5.6281    0.6794 H   0  0  0  0  0  0
    2.2028    4.7343    2.8601 H   0  0  0  0  0  0
    0.8112    4.0509    2.0275 H   0  0  0  0  0  0
    4.6392    2.2379    3.1783 H   0  0  0  0  0  0
    3.1075   -0.5017    5.3299 H   0  0  0  0  0  0
    1.6190    0.4297    5.3333 H   0  0  0  0  0  0
    1.9222   -0.7887    4.0864 H   0  0  0  0  0  0
    5.8584    1.8735    5.2677 H   0  0  0  0  0  0
    4.9882    0.3993    5.6437 H   0  0  0  0  0  0
    6.1132    0.4336    4.2834 H   0  0  0  0  0  0
   -4.2792   19.3007   -6.4685 O   0  5  0  0  0  0
   -6.3691   18.8998   -4.9515 O   0  5  0  0  0  0
   -5.5056   15.4580    0.6478 O   0  5  0  0  0  0
   -3.5815   16.6871    4.7485 O   0  5  0  0  0  0
  1  2  1  0  0  0
  1  3  1  0  0  0
  1  4  1  0  0  0
  2  5  1  0  0  0
  2  6  1  0  0  0
  2 51  1  0  0  0
  3  7  2  0  0  0
  3  8  1  0  0  0
  4  9  2  0  0  0
  4 52  1  0  0  0
  5 10  1  0  0  0
  5 11  1  0  0  0
  5 53  1  0  0  0
  6 12  1  0  0  0
  7 13  1  0  0  0
  7  9  1  0  0  0
  8 14  2  0  0  0
 10 15  1  0  0  0
 10 12  1  0  0  0
 10 54  1  0  0  0
 11 55  1  0  0  0
 12 16  1  0  0  0
 12 56  1  0  0  0
 13 17  2  0  0  0
 13 18  1  0  0  0
 14 17  1  0  0  0
 14 57  1  0  0  0
 15 19  1  0  0  0
 16 20  1  0  0  0
 16 58  1  0  0  0
 16 59  1  0  0  0
 18 60  1  0  0  0
 18 61  1  0  0  0
 19 21  2  0  0  0
 19 89  1  0  0  0
 19 90  1  0  0  0
 20 22  1  0  0  0
 22 23  1  0  0  0
 22 24  2  0  0  0
 22 91  1  0  0  0
 23 25  1  0  0  0
 25 26  1  0  0  0
 25 27  2  0  0  0
 25 92  1  0  0  0
 26 28  1  0  0  0
 28 29  1  0  0  0
 28 62  1  0  0  0
 28 63  1  0  0  0
 29 30  1  0  0  0
 29 31  1  0  0  0
 29 32  1  0  0  0
 30 33  1  0  0  0
 30 34  1  0  0  0
 30 64  1  0  0  0
 31 65  1  0  0  0
 31 66  1  0  0  0
 31 67  1  0  0  0
 32 68  1  0  0  0
 32 69  1  0  0  0
 32 70  1  0  0  0
 33 35  1  0  0  0
 33 36  2  0  0  0
 34 71  1  0  0  0
 35 37  1  0  0  0
 35 72  1  0  0  0
 37 38  1  0  0  0
 37 73  1  0  0  0
 37 74  1  0  0  0
 38 39  1  0  0  0
 38 75  1  0  0  0
 38 76  1  0  0  0
 39 40  1  0  0  0
 39 41  2  0  0  0
 40 42  1  0  0  0
 40 77  1  0  0  0
 42 43  1  0  0  0
 42 78  1  0  0  0
 42 79  1  0  0  0
 43 44  1  0  0  0
 43 80  1  0  0  0
 43 81  1  0  0  0
 44 45  1  0  0  0
 45 46  1  0  0  0
 45 47  2  0  0  0
 46 48  2  0  0  0
 46 49  1  0  0  0
 48 50  1  0  0  0
 48 82  1  0  0  0
 49 83  1  0  0  0
 49 84  1  0  0  0
 49 85  1  0  0  0
 50 86  1  0  0  0
 50 87  1  0  0  0
 50 88  1  0  0  0
M  CHG  4  89  -1  90  -1  91  -1  92  -1
M  END
> <i_ionizer_Ion_state_n>
30

> <i_ionizer_Tot_Q>
-4

> <s_ionizer_Ion_centers>
89_90_91_92

> <s_ionizer_Ion_types>
OM_OM_OM_OM

> <s_ionizer_Ion_ctrs_in>
21_22_26_30

> <r_ionizer_Ionization_penalty>
4.85714e-05

> <r_ionizer_Ionization_penalty_charging>
2.98356e-05

> <r_ionizer_Ionization_penalty_neutral>
1.87357e-05

> <s_st_Chirality_1>
2_R_6_1_5_51

> <s_st_Chirality_2>
5_R_11_2_10_53

> <s_st_Chirality_3>
10_R_15_5_12_54

> <s_st_Chirality_4>
12_R_6_10_16_56

> <s_st_Chirality_5>
30_R_34_33_29_64

> <s_st_EZ_1>
45_46_48_50_E

> <i_mmod_Serial_Number-OPLS-2005>
536

> <i_i_glide_lignum>
530

> <r_i_docking_score>
-6.06929

> <r_i_glide_gscore>
-6.06929

> <r_i_glide_lipo>
-0.911827

> <r_i_glide_hbond>
-1.24323

> <r_i_glide_metal>
0

> <r_i_glide_eburp>
3.56703e-17

> <r_i_glide_evdw>
-50.5207

> <r_i_glide_ecoul>
-5.44821

> <r_i_glide_erotb>
0.528317

> <r_i_glide_esite>
0.143925

> <r_i_glide_emodel>
-88.969

> <r_i_glide_energy>
-55.9689

> <r_i_glide_einternal>
11.8842

> <i_i_glide_confnum>
957

> <i_i_glide_posenum>
305

$$$$
C05130
                    3D
 Structure written by MMmdl.
 15 15  0  0  1  0            999 V2000
    3.2296    1.8265    3.7667 C   0  0  0  0  0  0
    2.3044    2.7928    3.1022 C   0  0  0  0  0  0
    3.0724    0.5073    4.1162 C   0  0  0  0  0  0
    0.8395    2.4655    3.3780 C   0  0  0  0  0  0
    4.2453    0.1056    4.6975 N   0  0  0  0  0  0
    5.1162    1.1180    4.7182 C   0  0  0  0  0  0
    0.1000    3.3006    3.8932 O   0  0  0  0  0  0
    2.5199    3.8035    3.4499 H   0  0  0  0  0  0
    2.4784    2.7749    2.0261 H   0  0  0  0  0  0
    2.2300   -0.1593    3.9965 H   0  0  0  0  0  0
    0.5063    1.4671    3.0926 H   0  0  0  0  0  0
    4.4298   -0.8225    5.0587 H   0  0  0  0  0  0
    6.1172    1.0963    5.1120 H   0  0  0  0  0  0
    4.5032    2.1629    4.1527 N   0  3  0  0  0  0
    4.9251    3.0749    4.0274 H   0  0  0  0  0  0
  1  2  1  0  0  0
  1  3  2  0  0  0
  1 14  1  0  0  0
  2  4  1  0  0  0
  2  8  1  0  0  0
  2  9  1  0  0  0
  3  5  1  0  0  0
  3 10  1  0  0  0
  4  7  2  0  0  0
  4 11  1  0  0  0
  5  6  1  0  0  0
  5 12  1  0  0  0
  6 13  1  0  0  0
  6 14  2  0  0  0
 14 15  1  0  0  0
M  CHG  1  14   1
M  END
> <i_ionizer_Ion_state_n>
1

> <i_ionizer_Tot_Q>
1

> <s_ionizer_Ion_centers>
14

> <s_ionizer_Ion_types>
N4

> <s_ionizer_Ion_ctrs_in>
4

> <r_ionizer_Ionization_penalty>
0.41068

> <r_ionizer_Ionization_penalty_charging>
0.41068

> <r_ionizer_Ionization_penalty_neutral>
0

> <i_mmod_Serial_Number-OPLS-2005>
632

> <i_i_glide_lignum>
625

> <r_i_docking_score>
-6.06152

> <r_i_glide_gscore>
-6.06152

> <r_i_glide_lipo>
-0.24064

> <r_i_glide_hbond>
-1

> <r_i_glide_metal>
0

> <r_i_glide_eburp>
-2.5

> <r_i_glide_evdw>
-11.8509

> <r_i_glide_ecoul>
-10.4849

> <r_i_glide_erotb>
0

> <r_i_glide_esite>
-0.32431

> <r_i_glide_emodel>
-32.4582

> <r_i_glide_energy>
-22.3359

> <r_i_glide_einternal>
0.216223

> <i_i_glide_confnum>
1

> <i_i_glide_posenum>
351

$$$$
C00231
                    3D
 Structure written by MMmdl.
 23 22  0  0  1  0            999 V2000
    3.1044   -0.2806    3.3303 C   0  0  1  0  0  0
    1.8647    0.3227    2.6227 C   0  0  1  0  0  0
    4.4266    0.4674    3.0649 C   0  0  0  0  0  0
    2.8425   -0.3299    4.7218 O   0  0  0  0  0  0
    1.7047    1.8493    2.8032 C   0  0  0  0  0  0
    1.9412    0.0284    1.2419 O   0  0  0  0  0  0
    5.1451    1.0698    4.2777 C   0  0  0  0  0  0
    4.8783    0.5900    1.9239 O   0  0  0  0  0  0
    0.4052    2.3160    2.4700 O   0  0  0  0  0  0
    5.9229    0.1020    4.9562 O   0  0  0  0  0  0
    0.0295    4.0327    2.8346 P   0  0  0  0  0  0
   -1.4995    4.0988    2.6160 O   0  0  0  0  0  0
    3.2337   -1.3113    2.9988 H   0  0  0  0  0  0
    0.9768   -0.1722    3.0175 H   0  0  0  0  0  0
    3.4983   -0.8754    5.1283 H   0  0  0  0  0  0
    2.4634    2.4008    2.2469 H   0  0  0  0  0  0
    1.8495    2.1061    3.8525 H   0  0  0  0  0  0
    2.7398    0.4289    0.9090 H   0  0  0  0  0  0
    5.7860    1.8897    3.9531 H   0  0  0  0  0  0
    4.4062    1.4788    4.9669 H   0  0  0  0  0  0
    5.3610   -0.6174    5.2004 H   0  0  0  0  0  0
    0.5003    4.1499    4.3004 O   0  5  0  0  0  0
    0.8925    4.7672    1.7859 O   0  5  0  0  0  0
  1  2  1  0  0  0
  1  3  1  0  0  0
  1  4  1  0  0  0
  1 13  1  0  0  0
  2  5  1  0  0  0
  2  6  1  0  0  0
  2 14  1  0  0  0
  3  7  1  0  0  0
  3  8  2  0  0  0
  4 15  1  0  0  0
  5  9  1  0  0  0
  5 16  1  0  0  0
  5 17  1  0  0  0
  6 18  1  0  0  0
  7 10  1  0  0  0
  7 19  1  0  0  0
  7 20  1  0  0  0
  9 11  1  0  0  0
 10 21  1  0  0  0
 11 12  2  0  0  0
 11 22  1  0  0  0
 11 23  1  0  0  0
M  CHG  2  22  -1  23  -1
M  END
> <i_ionizer_Ion_state_n>
3

> <i_ionizer_Tot_Q>
-2

> <s_ionizer_Ion_centers>
22_23

> <s_ionizer_Ion_types>
OM_OM

> <s_ionizer_Ion_ctrs_in>
12_13

> <r_ionizer_Ionization_penalty>
1.49178e-05

> <r_ionizer_Ionization_penalty_charging>
1.49178e-05

> <r_ionizer_Ionization_penalty_neutral>
0

> <s_st_Chirality_1>
1_S_4_3_2_13

> <s_st_Chirality_2>
2_R_6_1_5_14

> <i_mmod_Serial_Number-OPLS-2005>
151

> <i_i_glide_lignum>
149

> <r_i_docking_score>
-6.06091

> <r_i_glide_gscore>
-6.06091

> <r_i_glide_lipo>
-0.377262

> <r_i_glide_hbond>
-2.22915

> <r_i_glide_metal>
0

> <r_i_glide_eburp>
-2.45988

> <r_i_glide_evdw>
-16.0196

> <r_i_glide_ecoul>
-15.4552

> <r_i_glide_erotb>
1.87072

> <r_i_glide_esite>
-0.0382517

> <r_i_glide_emodel>
-64.0135

> <r_i_glide_energy>
-31.4748

> <r_i_glide_einternal>
4.3734

> <i_i_glide_confnum>
5

> <i_i_glide_posenum>
93

$$$$
C05565
                    3D
 Structure written by MMmdl.
 19 19  0  0  1  0            999 V2000
    2.5667    1.1201    2.8234 C   0  0  1  0  0  0
    3.6933    1.7309    3.5077 N   0  0  0  0  0  0
    2.6627   -0.2778    3.4172 C   0  0  0  0  0  0
    1.2484    1.8570    3.1382 C   0  0  0  0  0  0
    4.3206    0.8792    4.3290 C   0  0  0  0  0  0
    3.6983   -0.3007    4.2533 N   0  0  0  0  0  0
    1.9155   -1.2163    3.1490 O   0  0  0  0  0  0
    1.1888    3.2979    2.5893 C   0  0  0  0  0  0
    5.2980    1.1368    5.0267 O   0  0  0  0  0  0
    0.1042    4.1608    3.2420 C   0  0  0  0  0  0
   -1.0908    3.8248    3.0861 O   0  0  0  0  0  0
    2.7616    1.0901    1.7506 H   0  0  0  0  0  0
    3.9597    2.6957    3.3759 H   0  0  0  0  0  0
    0.4046    1.2842    2.7489 H   0  0  0  0  0  0
    1.1170    1.8836    4.2212 H   0  0  0  0  0  0
    3.9785   -1.1168    4.7762 H   0  0  0  0  0  0
    2.1515    3.7869    2.7435 H   0  0  0  0  0  0
    1.0096    3.2911    1.5145 H   0  0  0  0  0  0
    0.4952    5.1608    3.8824 O   0  5  0  0  0  0
  1  2  1  0  0  0
  1  3  1  0  0  0
  1  4  1  0  0  0
  1 12  1  0  0  0
  2  5  1  0  0  0
  2 13  1  0  0  0
  3  6  1  0  0  0
  3  7  2  0  0  0
  4  8  1  0  0  0
  4 14  1  0  0  0
  4 15  1  0  0  0
  5  9  2  0  0  0
  5  6  1  0  0  0
  6 16  1  0  0  0
  8 10  1  0  0  0
  8 17  1  0  0  0
  8 18  1  0  0  0
 10 11  2  0  0  0
 10 19  1  0  0  0
M  CHG  1  19  -1
M  END
> <i_ionizer_Ion_state_n>
1

> <i_ionizer_Tot_Q>
-1

> <s_ionizer_Ion_centers>
19

> <s_ionizer_Ion_types>
OM

> <s_ionizer_Ion_ctrs_in>
11

> <r_ionizer_Ionization_penalty>
0.00059219

> <r_ionizer_Ionization_penalty_charging>
0.00059219

> <r_ionizer_Ionization_penalty_neutral>
0

> <s_st_Chirality_1>
1_R_2_3_4_12

> <i_mmod_Serial_Number-OPLS-2005>
743

> <i_i_glide_lignum>
734

> <r_i_docking_score>
-6.04957

> <r_i_glide_gscore>
-6.04957

> <r_i_glide_lipo>
-0.231952

> <r_i_glide_hbond>
-1.80157

> <r_i_glide_metal>
0

> <r_i_glide_eburp>
-2.49141

> <r_i_glide_evdw>
-17.732

> <r_i_glide_ecoul>
-8.13663

> <r_i_glide_erotb>
0.603447

> <r_i_glide_esite>
0.104134

> <r_i_glide_emodel>
-50.6953

> <r_i_glide_energy>
-25.8686

> <r_i_glide_einternal>
6.71419

> <i_i_glide_confnum>
3

> <i_i_glide_posenum>
337

$$$$
C07114
                    3D
 Structure written by MMmdl.
 19 19  0  0  1  0            999 V2000
    2.6950    2.2301    3.0140 C   0  0  0  0  0  0
    2.5393    3.7128    3.0985 C   0  0  0  0  0  0
    3.7403    1.6013    3.7311 C   0  0  0  0  0  0
    1.8256    1.4277    2.2350 C   0  0  0  0  0  0
    1.2789    4.3151    2.4446 C   0  0  0  0  0  0
    3.3710    4.4298    3.6608 O   0  0  0  0  0  0
    3.9140    0.2049    3.6722 C   0  0  0  0  0  0
    2.0005    0.0310    2.1771 C   0  0  0  0  0  0
   -0.0155    3.9138    3.1567 C   0  0  0  0  0  0
    3.0440   -0.5815    2.8951 C   0  0  0  0  0  0
    0.0968    3.3004    4.2408 O   0  0  0  0  0  0
    4.4212    2.1842    4.3349 H   0  0  0  0  0  0
    1.0138    1.8609    1.6705 H   0  0  0  0  0  0
    1.3567    5.4024    2.4458 H   0  0  0  0  0  0
    1.2219    3.9908    1.4054 H   0  0  0  0  0  0
    4.7159   -0.2626    4.2244 H   0  0  0  0  0  0
    1.3317   -0.5712    1.5800 H   0  0  0  0  0  0
    3.1769   -1.6524    2.8497 H   0  0  0  0  0  0
   -1.0916    4.2552    2.6186 O   0  5  0  0  0  0
  1  2  1  0  0  0
  1  3  1  0  0  0
  1  4  2  0  0  0
  2  5  1  0  0  0
  2  6  2  0  0  0
  3  7  2  0  0  0
  3 12  1  0  0  0
  4  8  1  0  0  0
  4 13  1  0  0  0
  5  9  1  0  0  0
  5 14  1  0  0  0
  5 15  1  0  0  0
  7 10  1  0  0  0
  7 16  1  0  0  0
  8 10  2  0  0  0
  8 17  1  0  0  0
  9 11  2  0  0  0
  9 19  1  0  0  0
 10 18  1  0  0  0
M  CHG  1  19  -1
M  END
> <i_ionizer_Ion_state_n>
1

> <i_ionizer_Tot_Q>
-1

> <s_ionizer_Ion_centers>
19

> <s_ionizer_Ion_types>
OM

> <s_ionizer_Ion_ctrs_in>
11

> <r_ionizer_Ionization_penalty>
0.00059219

> <r_ionizer_Ionization_penalty_charging>
0.00059219

> <r_ionizer_Ionization_penalty_neutral>
0

> <i_mmod_Serial_Number-OPLS-2005>
899

> <i_i_glide_lignum>
887

> <r_i_docking_score>
-6.04808

> <r_i_glide_gscore>
-6.04808

> <r_i_glide_lipo>
-0.665737

> <r_i_glide_hbond>
-1.28459

> <r_i_glide_metal>
0

> <r_i_glide_eburp>
-2.5

> <r_i_glide_evdw>
-17.7622

> <r_i_glide_ecoul>
-4.78227

> <r_i_glide_erotb>
0.652152

> <r_i_glide_esite>
-0.350708

> <r_i_glide_emodel>
-48.3616

> <r_i_glide_energy>
-22.5445

> <r_i_glide_einternal>
2.00566

> <i_i_glide_confnum>
1

> <i_i_glide_posenum>
241

$$$$
C00386
                    3D
 Structure written by MMmdl.
 31 31  0  0  1  0            999 V2000
    1.6694    3.7744    2.3804 C   0  0  2  0  0  0
    3.0689    3.5979    3.0078 C   0  0  0  0  0  0
    1.3216    5.1948    2.4202 N   0  0  0  0  0  0
    0.6518    2.9751    3.2122 C   0  0  0  0  0  0
    3.5041    2.1608    3.1738 C   0  0  0  0  0  0
    1.1573    5.9832    1.3467 C   0  0  0  0  0  0
    0.4875    1.7677    2.9267 O   0  0  0  0  0  0
    3.9551    1.4765    4.2876 C   0  0  0  0  0  0
    3.4797    1.2573    2.1222 N   0  0  0  0  0  0
    0.4658    7.3274    1.5896 C   0  0  0  0  0  0
    1.5304    5.6723    0.2158 O   0  0  0  0  0  0
    3.8959    0.0883    2.6057 C   0  0  0  0  0  0
   -0.5356    7.6830    0.4767 C   0  0  0  0  0  0
    1.6771    3.4137    1.3499 H   0  0  0  0  0  0
    3.8156    4.1020    2.3930 H   0  0  0  0  0  0
    3.1101    4.0820    3.9852 H   0  0  0  0  0  0
    1.1136    5.5802    3.3295 H   0  0  0  0  0  0
    4.1126    1.7953    5.3078 H   0  0  0  0  0  0
    3.1813    1.4441    1.1753 H   0  0  0  0  0  0
   -0.0503    7.2946    2.5506 H   0  0  0  0  0  0
    1.2320    8.0995    1.6691 H   0  0  0  0  0  0
    3.9736   -0.8166    2.0201 H   0  0  0  0  0  0
   -0.0178    7.8470   -0.4694 H   0  0  0  0  0  0
   -1.2398    6.8644    0.3207 H   0  0  0  0  0  0
   -1.9445    9.1045    0.0594 H   0  0  0  0  0  0
   -1.8130    8.7533    1.6644 H   0  0  0  0  0  0
    0.0319    3.6020    4.0981 O   0  5  0  0  0  0
    4.1997    0.1692    3.8996 N   0  3  0  0  0  0
    4.5277   -0.5823    4.4898 H   0  0  0  0  0  0
   -1.2979    8.8990    0.8078 N   0  3  0  0  0  0
   -0.6629    9.6759    0.9244 H   0  0  0  0  0  0
  1  2  1  0  0  0
  1  3  1  0  0  0
  1  4  1  0  0  0
  1 14  1  0  0  0
  2  5  1  0  0  0
  2 15  1  0  0  0
  2 16  1  0  0  0
  3  6  1  0  0  0
  3 17  1  0  0  0
  4  7  2  0  0  0
  4 27  1  0  0  0
  5  8  2  0  0  0
  5  9  1  0  0  0
  6 10  1  0  0  0
  6 11  2  0  0  0
  8 18  1  0  0  0
  8 28  1  0  0  0
  9 12  1  0  0  0
  9 19  1  0  0  0
 10 13  1  0  0  0
 10 20  1  0  0  0
 10 21  1  0  0  0
 12 22  1  0  0  0
 12 28  2  0  0  0
 13 23  1  0  0  0
 13 24  1  0  0  0
 13 30  1  0  0  0
 25 30  1  0  0  0
 26 30  1  0  0  0
 28 29  1  0  0  0
 30 31  1  0  0  0
M  CHG  3  27  -1  28   1  30   1
M  END
> <i_ionizer_Ion_state_n>
7

> <i_ionizer_Tot_Q>
1

> <s_ionizer_Ion_centers>
27_28_30

> <s_ionizer_Ion_types>
OM_N4_N5

> <s_ionizer_Ion_ctrs_in>
7_13_16

> <r_ionizer_Ionization_penalty>
0.411459

> <r_ionizer_Ionization_penalty_charging>
0.411459

> <r_ionizer_Ionization_penalty_neutral>
0

> <s_st_Chirality_1>
1_S_3_4_2_14

> <i_mmod_Serial_Number-OPLS-2005>
220

> <i_i_glide_lignum>
218

> <r_i_docking_score>
-6.04302

> <r_i_glide_gscore>
-6.04302

> <r_i_glide_lipo>
-0.481243

> <r_i_glide_hbond>
-1.67617

> <r_i_glide_metal>
0

> <r_i_glide_eburp>
-2.06633

> <r_i_glide_evdw>
-16.5918

> <r_i_glide_ecoul>
-19.7018

> <r_i_glide_erotb>
1.50609

> <r_i_glide_esite>
-0.0278454

> <r_i_glide_emodel>
-91.5192

> <r_i_glide_energy>
-36.2936

> <r_i_glide_einternal>
4.03955

> <i_i_glide_confnum>
1

> <i_i_glide_posenum>
825

$$$$
C05539
                    3D
 Structure written by MMmdl.
 27 26  0  0  1  0            999 V2000
    2.4122    0.7013    3.5564 C   0  0  2  0  0  0
    2.3312    1.2977    2.1319 C   0  0  0  0  0  0
    3.8068    0.3469    3.8194 N   0  0  0  0  0  0
    1.5418   -0.5653    3.6404 C   0  0  0  0  0  0
    3.0692    2.6390    1.9624 C   0  0  0  0  0  0
    4.7376    1.1654    4.3328 C   0  0  0  0  0  0
    0.8006   -0.6975    4.6408 O   0  0  0  0  0  0
    2.5171    3.7303    2.8990 C   0  0  0  0  0  0
    6.0995    0.5410    4.6143 C   0  0  0  0  0  0
    4.5438    2.3563    4.5736 O   0  0  0  0  0  0
    1.1781    4.3272    2.4372 C   0  0  0  0  0  0
   -0.0880    3.8872    3.2075 C   0  0  0  0  0  0
    1.1213    5.1179    1.4931 O   0  0  0  0  0  0
    0.0999    3.3009    4.2974 O   0  0  0  0  0  0
    2.0681    1.4396    4.2835 H   0  0  0  0  0  0
    2.7646    0.5818    1.4319 H   0  0  0  0  0  0
    1.2894    1.4144    1.8281 H   0  0  0  0  0  0
    4.0626   -0.6145    3.6508 H   0  0  0  0  0  0
    4.1343    2.5033    2.1547 H   0  0  0  0  0  0
    2.9814    2.9664    0.9253 H   0  0  0  0  0  0
    2.3827    3.3186    3.9000 H   0  0  0  0  0  0
    3.2442    4.5388    2.9853 H   0  0  0  0  0  0
    6.7851    1.2792    5.0315 H   0  0  0  0  0  0
    6.0021   -0.2768    5.3288 H   0  0  0  0  0  0
    6.5364    0.1495    3.6954 H   0  0  0  0  0  0
    1.6383   -1.3832    2.6995 O   0  5  0  0  0  0
   -1.1831    4.1586    2.6658 O   0  5  0  0  0  0
  1  2  1  0  0  0
  1  3  1  0  0  0
  1  4  1  0  0  0
  1 15  1  0  0  0
  2  5  1  0  0  0
  2 16  1  0  0  0
  2 17  1  0  0  0
  3  6  1  0  0  0
  3 18  1  0  0  0
  4  7  2  0  0  0
  4 26  1  0  0  0
  5  8  1  0  0  0
  5 19  1  0  0  0
  5 20  1  0  0  0
  6  9  1  0  0  0
  6 10  2  0  0  0
  8 11  1  0  0  0
  8 21  1  0  0  0
  8 22  1  0  0  0
  9 23  1  0  0  0
  9 24  1  0  0  0
  9 25  1  0  0  0
 11 12  1  0  0  0
 11 13  2  0  0  0
 12 14  2  0  0  0
 12 27  1  0  0  0
M  CHG  2  26  -1  27  -1
M  END
> <i_ionizer_Ion_state_n>
3

> <i_ionizer_Tot_Q>
-2

> <s_ionizer_Ion_centers>
26_27

> <s_ionizer_Ion_types>
OM_OM

> <s_ionizer_Ion_ctrs_in>
7_15

> <r_ionizer_Ionization_penalty>
0.00118438

> <r_ionizer_Ionization_penalty_charging>
0.00118438

> <r_ionizer_Ionization_penalty_neutral>
0

> <s_st_Chirality_1>
1_S_3_4_2_15

> <i_mmod_Serial_Number-OPLS-2005>
740

> <i_i_glide_lignum>
731

> <r_i_docking_score>
-6.03014

> <r_i_glide_gscore>
-6.03014

> <r_i_glide_lipo>
-0.356456

> <r_i_glide_hbond>
-1.75159

> <r_i_glide_metal>
0

> <r_i_glide_eburp>
-2.45158

> <r_i_glide_evdw>
-22.1424

> <r_i_glide_ecoul>
-9.06422

> <r_i_glide_erotb>
1.85559

> <r_i_glide_esite>
-0.648297

> <r_i_glide_emodel>
-68.1658

> <r_i_glide_energy>
-31.2066

> <r_i_glide_einternal>
5.31091

> <i_i_glide_confnum>
50

> <i_i_glide_posenum>
160

$$$$
C00153
                    3D
 Structure written by MMmdl.
 15 15  0  0  1  0            999 V2000
    3.1361    0.8282    3.6946 C   0  0  0  0  0  0
    2.1097    1.6981    3.2659 C   0  0  0  0  0  0
    2.9140   -0.5631    3.5689 C   0  0  0  0  0  0
    4.3921    1.3768    4.3072 C   0  0  0  0  0  0
    0.9335    1.1513    2.7178 C   0  0  0  0  0  0
    1.7895   -1.0954    3.0439 N   0  0  0  0  0  0
    5.1784    0.4999    4.9372 N   0  0  0  0  0  0
    4.6990    2.5602    4.1811 O   0  0  0  0  0  0
    0.8241   -0.2496    2.6271 C   0  0  0  0  0  0
    2.2174    2.7701    3.3497 H   0  0  0  0  0  0
    3.6536   -1.2779    3.8993 H   0  0  0  0  0  0
    0.1332    1.7909    2.3764 H   0  0  0  0  0  0
    6.0450    0.8180    5.3459 H   0  0  0  0  0  0
    4.9146   -0.4724    4.9964 H   0  0  0  0  0  0
   -0.0640   -0.7029    2.2122 H   0  0  0  0  0  0
  1  2  1  0  0  0
  1  3  2  0  0  0
  1  4  1  0  0  0
  2  5  2  0  0  0
  2 10  1  0  0  0
  3  6  1  0  0  0
  3 11  1  0  0  0
  4  7  1  0  0  0
  4  8  2  0  0  0
  5  9  1  0  0  0
  5 12  1  0  0  0
  6  9  2  0  0  0
  7 13  1  0  0  0
  7 14  1  0  0  0
  9 15  1  0  0  0
M  END
> <i_ionizer_Ion_state_n>
0

> <i_ionizer_Tot_Q>
0

> <s_ionizer_Ion_centers>


> <s_ionizer_Ion_types>


> <s_ionizer_Ion_ctrs_in>


> <r_ionizer_Ionization_penalty>
0.0184459

> <r_ionizer_Ionization_penalty_charging>
0

> <r_ionizer_Ionization_penalty_neutral>
0.0184459

> <i_mmod_Serial_Number-OPLS-2005>
111

> <i_i_glide_lignum>
109

> <r_i_docking_score>
-6.02604

> <r_i_glide_gscore>
-6.02604

> <r_i_glide_lipo>
-0.514317

> <r_i_glide_hbond>
-0.478019

> <r_i_glide_metal>
0

> <r_i_glide_eburp>
-2.5

> <r_i_glide_evdw>
-19.676

> <r_i_glide_ecoul>
-5.77168

> <r_i_glide_erotb>
0

> <r_i_glide_esite>
-0.382462

> <r_i_glide_emodel>
-32.8211

> <r_i_glide_energy>
-25.4477

> <r_i_glide_einternal>
0.234351

> <i_i_glide_confnum>
1

> <i_i_glide_posenum>
775

$$$$
C03765
                    3D
 Structure written by MMmdl.
 18 18  0  0  1  0            999 V2000
    2.6899    2.4136    3.1007 C   0  0  0  0  0  0
    2.4998    1.0749    3.5032 C   0  0  0  0  0  0
    3.8507    3.1067    3.5033 C   0  0  0  0  0  0
    1.6476    3.1065    2.2450 C   0  0  0  0  0  0
    3.4674    0.4322    4.2999 C   0  0  0  0  0  0
    4.8181    2.4636    4.3001 C   0  0  0  0  0  0
    0.7882    4.0684    3.0605 C   0  0  0  0  0  0
    4.6268    1.1257    4.6985 C   0  0  0  0  0  0
   -0.3029    3.7128    3.5004 O   0  0  0  0  0  0
    5.5618    0.5000    5.4700 O   0  0  0  0  0  0
    1.6125    0.5380    3.2011 H   0  0  0  0  0  0
    4.0020    4.1327    3.2010 H   0  0  0  0  0  0
    2.1400    3.6577    1.4435 H   0  0  0  0  0  0
    1.0047    2.3611    1.7762 H   0  0  0  0  0  0
    3.3189   -0.5932    4.6052 H   0  0  0  0  0  0
    5.7048    3.0006    4.6035 H   0  0  0  0  0  0
    1.2024    5.0645    3.2187 H   0  0  0  0  0  0
    5.3751   -0.4151    5.6125 H   0  0  0  0  0  0
  1  2  1  0  0  0
  1  3  2  0  0  0
  1  4  1  0  0  0
  2  5  2  0  0  0
  2 11  1  0  0  0
  3  6  1  0  0  0
  3 12  1  0  0  0
  4  7  1  0  0  0
  4 13  1  0  0  0
  4 14  1  0  0  0
  5  8  1  0  0  0
  5 15  1  0  0  0
  6  8  2  0  0  0
  6 16  1  0  0  0
  7  9  2  0  0  0
  7 17  1  0  0  0
  8 10  1  0  0  0
 10 18  1  0  0  0
M  END
> <i_ionizer_Ion_state_n>
0

> <i_ionizer_Tot_Q>
0

> <s_ionizer_Ion_centers>


> <s_ionizer_Ion_types>


> <s_ionizer_Ion_ctrs_in>


> <r_ionizer_Ionization_penalty>
0.00059219

> <r_ionizer_Ionization_penalty_charging>
0

> <r_ionizer_Ionization_penalty_neutral>
0.00059219

> <i_mmod_Serial_Number-OPLS-2005>
564

> <i_i_glide_lignum>
558

> <r_i_docking_score>
-6.02395

> <r_i_glide_gscore>
-6.02395

> <r_i_glide_lipo>
-0.626399

> <r_i_glide_hbond>
-0.95

> <r_i_glide_metal>
0

> <r_i_glide_eburp>
-2.5

> <r_i_glide_evdw>
-18.5594

> <r_i_glide_ecoul>
-8.14973

> <r_i_glide_erotb>
0.87085

> <r_i_glide_esite>
-0.518675

> <r_i_glide_emodel>
-35.9346

> <r_i_glide_energy>
-26.7091

> <r_i_glide_einternal>
0.524666

> <i_i_glide_confnum>
2

> <i_i_glide_posenum>
1000

$$$$
C05828
                    3D
 Structure written by MMmdl.
 17 17  0  0  1  0            999 V2000
    1.8192    1.7336    3.2365 C   0  0  0  0  0  0
    3.1644    2.0069    3.3650 C   0  0  0  0  0  0
    1.4839    0.6569    4.0577 N   0  0  0  0  0  0
    0.7966    2.4061    2.3647 C   0  0  0  0  0  0
    3.6695    1.0987    4.2849 N   0  0  0  0  0  0
    2.6281    0.3391    4.6493 C   0  0  0  0  0  0
   -0.0179    3.3727    3.2273 C   0  0  0  0  0  0
    5.0344    0.9972    4.7538 C   0  0  0  0  0  0
   -1.1502    3.6990    2.8067 O   0  0  0  0  0  0
    3.7799    2.7584    2.8925 H   0  0  0  0  0  0
    1.2783    2.9571    1.5567 H   0  0  0  0  0  0
    0.1310    1.6775    1.9002 H   0  0  0  0  0  0
    2.7103   -0.4670    5.3637 H   0  0  0  0  0  0
    5.1305    1.5081    5.7121 H   0  0  0  0  0  0
    5.3081   -0.0510    4.8773 H   0  0  0  0  0  0
    5.7120    1.4574    4.0340 H   0  0  0  0  0  0
    0.4978    3.7584    4.2996 O   0  5  0  0  0  0
  1  2  2  0  0  0
  1  3  1  0  0  0
  1  4  1  0  0  0
  2  5  1  0  0  0
  2 10  1  0  0  0
  3  6  2  0  0  0
  4  7  1  0  0  0
  4 11  1  0  0  0
  4 12  1  0  0  0
  5  8  1  0  0  0
  5  6  1  0  0  0
  6 13  1  0  0  0
  7  9  2  0  0  0
  7 17  1  0  0  0
  8 14  1  0  0  0
  8 15  1  0  0  0
  8 16  1  0  0  0
M  CHG  1  17  -1
M  END
> <i_ionizer_Ion_state_n>
2

> <i_ionizer_Tot_Q>
-1

> <s_ionizer_Ion_centers>
17

> <s_ionizer_Ion_types>
OM

> <s_ionizer_Ion_ctrs_in>
9

> <r_ionizer_Ionization_penalty>
0.411272

> <r_ionizer_Ionization_penalty_charging>
0.00059219

> <r_ionizer_Ionization_penalty_neutral>
0.41068

> <i_mmod_Serial_Number-OPLS-2005>
802

> <i_i_glide_lignum>
793

> <r_i_docking_score>
-6.02119

> <r_i_glide_gscore>
-6.02119

> <r_i_glide_lipo>
-0.362601

> <r_i_glide_hbond>
-1.33971

> <r_i_glide_metal>
0

> <r_i_glide_eburp>
-2.9

> <r_i_glide_evdw>
-14.2545

> <r_i_glide_ecoul>
-6.64028

> <r_i_glide_erotb>
0.841548

> <r_i_glide_esite>
-0.456042

> <r_i_glide_emodel>
-45.4949

> <r_i_glide_energy>
-20.8948

> <r_i_glide_einternal>
0.71868

> <i_i_glide_confnum>
2

> <i_i_glide_posenum>
416

$$$$
C05332
                    3D
 Structure written by MMmdl.
 21 21  0  0  1  0            999 V2000
    4.4048    0.8453    4.2196 C   0  0  0  0  0  0
    4.2545    2.2120    3.9025 C   0  0  0  0  0  0
    3.3020   -0.0260    4.0950 C   0  0  0  0  0  0
    5.7436    0.3166    4.6976 C   0  0  0  0  0  0
    3.0097    2.7034    3.4628 C   0  0  0  0  0  0
    2.0576    0.4663    3.6553 C   0  0  0  0  0  0
    5.8518    0.3217    6.2289 C   0  0  0  0  0  0
    1.9113    1.8309    3.3391 C   0  0  0  0  0  0
    5.0918    2.8882    3.9956 H   0  0  0  0  0  0
    3.4055   -1.0738    4.3365 H   0  0  0  0  0  0
    5.8823   -0.6950    4.3133 H   0  0  0  0  0  0
    6.5394    0.9223    4.2615 H   0  0  0  0  0  0
    2.8974    3.7500    3.2205 H   0  0  0  0  0  0
    1.2150   -0.2028    3.5605 H   0  0  0  0  0  0
    6.0816    1.3251    6.5892 H   0  0  0  0  0  0
    4.9015    0.0287    6.6769 H   0  0  0  0  0  0
    0.9570    2.2080    3.0018 H   0  0  0  0  0  0
    6.9459   -0.5744    7.7062 H   0  0  0  0  0  0
    6.6836   -1.5406    6.3968 H   0  0  0  0  0  0
    6.9000   -0.6009    6.6974 N   0  3  0  0  0  0
    7.7924   -0.3226    6.3145 H   0  0  0  0  0  0
  1  2  1  0  0  0
  1  3  2  0  0  0
  1  4  1  0  0  0
  2  5  2  0  0  0
  2  9  1  0  0  0
  3  6  1  0  0  0
  3 10  1  0  0  0
  4  7  1  0  0  0
  4 11  1  0  0  0
  4 12  1  0  0  0
  5  8  1  0  0  0
  5 13  1  0  0  0
  6  8  2  0  0  0
  6 14  1  0  0  0
  7 15  1  0  0  0
  7 16  1  0  0  0
  7 20  1  0  0  0
  8 17  1  0  0  0
 18 20  1  0  0  0
 19 20  1  0  0  0
 20 21  1  0  0  0
M  CHG  1  20   1
M  END
> <i_ionizer_Ion_state_n>
1

> <i_ionizer_Tot_Q>
1

> <s_ionizer_Ion_centers>
20

> <s_ionizer_Ion_types>
N5

> <s_ionizer_Ion_ctrs_in>
9

> <r_ionizer_Ionization_penalty>
0.000187331

> <r_ionizer_Ionization_penalty_charging>
0.000187331

> <r_ionizer_Ionization_penalty_neutral>
0

> <i_mmod_Serial_Number-OPLS-2005>
673

> <i_i_glide_lignum>
666

> <r_i_docking_score>
-6.02067

> <r_i_glide_gscore>
-6.02067

> <r_i_glide_lipo>
-0.821427

> <r_i_glide_hbond>
-0.744059

> <r_i_glide_metal>
0

> <r_i_glide_eburp>
-2.5

> <r_i_glide_evdw>
-14.5059

> <r_i_glide_ecoul>
-6.94055

> <r_i_glide_erotb>
0

> <r_i_glide_esite>
-0.10066

> <r_i_glide_emodel>
-36.0183

> <r_i_glide_energy>
-21.4464

> <r_i_glide_einternal>
1.07161

> <i_i_glide_confnum>
1

> <i_i_glide_posenum>
847

$$$$
C01236
                    3D
 Structure written by MMmdl.
 25 25  0  0  1  0            999 V2000
   -0.1585    4.8565    2.5753 P   0  0  0  0  0  0
    0.9381    3.5571    2.0171 O   0  0  0  0  0  0
    0.4998    5.3001    3.9000 O   0  0  0  0  0  0
    1.1871    2.5398    2.9700 C   0  0  0  0  0  0
    2.1428    1.4874    2.3869 C   0  0  2  0  0  0
    2.7003    0.5480    3.4829 C   0  0  2  0  0  0
    3.2093    2.1625    1.7241 O   0  0  0  0  0  0
    3.9025   -0.2969    2.9905 C   0  0  1  0  0  0
    1.6722   -0.3420    3.8719 O   0  0  0  0  0  0
    4.2611    1.4865    1.2058 C   0  0  0  0  0  0
    4.2936   -0.0172    1.5209 C   0  0  2  0  0  0
    5.0147    0.0076    3.8114 O   0  0  0  0  0  0
    5.1529    2.0092    0.5406 O   0  0  0  0  0  0
    3.4178   -0.7086    0.6515 O   0  0  0  0  0  0
    1.5842    2.9499    3.8993 H   0  0  0  0  0  0
    0.2275    2.0830    3.2105 H   0  0  0  0  0  0
    1.6015    0.8943    1.6487 H   0  0  0  0  0  0
    2.9904    1.1407    4.3518 H   0  0  0  0  0  0
    3.6986   -1.3617    3.1117 H   0  0  0  0  0  0
    2.0024   -0.8952    4.5631 H   0  0  0  0  0  0
    5.2985   -0.3953    1.3300 H   0  0  0  0  0  0
    4.9481   -0.4945    4.6093 H   0  0  0  0  0  0
    3.7065   -0.5659   -0.2373 H   0  0  0  0  0  0
   -0.0638    5.8617    1.4064 O   0  5  0  0  0  0
   -1.5001    4.1010    2.7066 O   0  5  0  0  0  0
  1  2  1  0  0  0
  1  3  2  0  0  0
  1 24  1  0  0  0
  1 25  1  0  0  0
  2  4  1  0  0  0
  4  5  1  0  0  0
  4 15  1  0  0  0
  4 16  1  0  0  0
  5  6  1  0  0  0
  5  7  1  0  0  0
  5 17  1  0  0  0
  6  8  1  0  0  0
  6  9  1  0  0  0
  6 18  1  0  0  0
  7 10  1  0  0  0
  8 11  1  0  0  0
  8 12  1  0  0  0
  8 19  1  0  0  0
  9 20  1  0  0  0
 10 13  2  0  0  0
 10 11  1  0  0  0
 11 14  1  0  0  0
 11 21  1  0  0  0
 12 22  1  0  0  0
 14 23  1  0  0  0
M  CHG  2  24  -1  25  -1
M  END
> <i_ionizer_Ion_state_n>
3

> <i_ionizer_Tot_Q>
-2

> <s_ionizer_Ion_centers>
24_25

> <s_ionizer_Ion_types>
OM_OM

> <s_ionizer_Ion_ctrs_in>
3_4

> <r_ionizer_Ionization_penalty>
1.49178e-05

> <r_ionizer_Ionization_penalty_charging>
1.49178e-05

> <r_ionizer_Ionization_penalty_neutral>
0

> <s_st_Chirality_1>
5_R_7_6_4_17

> <s_st_Chirality_2>
6_R_9_8_5_18

> <s_st_Chirality_3>
8_S_12_11_6_19

> <s_st_Chirality_4>
11_R_14_10_8_21

> <i_mmod_Serial_Number-OPLS-2005>
429

> <i_i_glide_lignum>
425

> <r_i_docking_score>
-6.01197

> <r_i_glide_gscore>
-6.01197

> <r_i_glide_lipo>
-0.458385

> <r_i_glide_hbond>
-1.3612

> <r_i_glide_metal>
0

> <r_i_glide_eburp>
-1.84767

> <r_i_glide_evdw>
-22.0608

> <r_i_glide_ecoul>
-10.2201

> <r_i_glide_erotb>
0.614025

> <r_i_glide_esite>
-0.171863

> <r_i_glide_emodel>
-68.7506

> <r_i_glide_energy>
-32.281

> <r_i_glide_einternal>
2.46461

> <i_i_glide_confnum>
1

> <i_i_glide_posenum>
756

$$$$
C05800
                    3D
 Structure written by MMmdl.
 91 91  0  0  1  0            999 V2000
   -2.5699   12.6763    6.6691 C   0  0  0  0  0  0
   -1.9214   13.1930    5.3969 C   0  0  0  0  0  0
   -0.6093   13.4155    5.1763 C   0  0  0  0  0  0
   -0.1238   13.9710    3.8460 C   0  0  0  0  0  0
    0.4871   13.1494    6.1971 C   0  0  0  0  0  0
   -3.6359   11.6103    6.3726 C   0  0  0  0  0  0
   -3.0279    8.2980    4.2953 C   0  0  0  0  0  0
   -3.4828    9.6385    4.8483 C   0  0  0  0  0  0
   -3.0376   10.2765    5.9510 C   0  0  0  0  0  0
   -1.9406    9.7543    6.8676 C   0  0  0  0  0  0
   -2.9227    8.3262    2.7622 C   0  0  0  0  0  0
   -0.3870    5.2947    2.6524 C   0  0  0  0  0  0
   -1.3074    6.4398    3.0368 C   0  0  0  0  0  0
   -2.0150    7.2370    2.2102 C   0  0  0  0  0  0
   -1.9865    7.1351    0.6924 C   0  0  0  0  0  0
    1.0928    5.6947    2.7550 C   0  0  0  0  0  0
    4.3591   -1.5152    0.3610 C   0  0  0  0  0  0
    3.5579   -0.3397    0.8888 C   0  0  0  0  0  0
    5.8040   -1.1643    0.0434 C   0  0  0  0  0  0
    2.8864   -0.2984    2.0562 C   0  0  0  0  0  0
    2.1146    0.9425    2.4776 C   0  0  0  0  0  0
    2.8345   -1.4609    3.0357 C   0  0  0  0  0  0
    2.3662    2.1481    1.5591 C   0  0  0  0  0  0
    1.5643    3.3625    1.9930 C   0  0  0  0  0  0
    2.0392    4.5644    2.3797 C   0  0  0  0  0  0
    3.5179    4.9094    2.4759 C   0  0  0  0  0  0
   -1.2568   14.1512    2.8240 C   0  0  0  0  0  0
   -0.7512   14.7507    1.5234 C   0  0  0  0  0  0
    0.4438   15.3320    1.2921 C   0  0  0  0  0  0
    0.7821   15.9114   -0.0679 C   0  0  0  0  0  0
    1.5531   15.4794    2.3209 C   0  0  0  0  0  0
    6.4051   -1.5733   -1.1709 C   0  0  0  0  0  0
    6.5564   -0.4146    0.9730 C   0  0  0  0  0  0
    7.7459   -1.2335   -1.4426 C   0  0  0  0  0  0
    5.7005   -2.2951   -2.0921 O   0  0  0  0  0  0
    7.8955   -0.0770    0.6980 C   0  0  0  0  0  0
    8.4906   -0.4868   -0.5098 C   0  0  0  0  0  0
   -3.0311   13.5264    7.1728 H   0  0  0  0  0  0
   -1.8237   12.2935    7.3623 H   0  0  0  0  0  0
   -2.6183   13.3976    4.5969 H   0  0  0  0  0  0
    0.3719   14.9257    4.0264 H   0  0  0  0  0  0
    0.6366   13.3089    3.4291 H   0  0  0  0  0  0
    0.8189   14.0831    6.6511 H   0  0  0  0  0  0
    0.1737   12.4751    6.9919 H   0  0  0  0  0  0
    1.3456   12.6853    5.7110 H   0  0  0  0  0  0
   -4.2602   11.4689    7.2561 H   0  0  0  0  0  0
   -4.3032   11.9588    5.5833 H   0  0  0  0  0  0
   -2.0519    8.0717    4.7257 H   0  0  0  0  0  0
   -3.6950    7.4947    4.5974 H   0  0  0  0  0  0
   -4.2607   10.1122    4.2669 H   0  0  0  0  0  0
   -1.3138    8.9966    6.4030 H   0  0  0  0  0  0
   -1.2796   10.5704    7.1607 H   0  0  0  0  0  0
   -2.3739    9.3296    7.7731 H   0  0  0  0  0  0
   -3.9123    8.2149    2.3172 H   0  0  0  0  0  0
   -2.5550    9.3024    2.4425 H   0  0  0  0  0  0
   -0.5912    4.4655    3.3306 H   0  0  0  0  0  0
   -0.6182    4.9233    1.6561 H   0  0  0  0  0  0
   -1.3830    6.6079    4.1015 H   0  0  0  0  0  0
   -1.1212    6.5907    0.3189 H   0  0  0  0  0  0
   -2.8862    6.6398    0.3273 H   0  0  0  0  0  0
   -1.9457    8.1314    0.2516 H   0  0  0  0  0  0
    1.2947    6.5484    2.1067 H   0  0  0  0  0  0
    1.3070    6.0287    3.7713 H   0  0  0  0  0  0
    4.3327   -2.3212    1.0952 H   0  0  0  0  0  0
    3.8776   -1.9009   -0.5384 H   0  0  0  0  0  0
    3.5387    0.5302    0.2478 H   0  0  0  0  0  0
    2.3870    1.1908    3.5042 H   0  0  0  0  0  0
    1.0471    0.7174    2.4928 H   0  0  0  0  0  0
    3.3007   -2.3631    2.6421 H   0  0  0  0  0  0
    3.3453   -1.2037    3.9632 H   0  0  0  0  0  0
    1.7987   -1.7038    3.2735 H   0  0  0  0  0  0
    2.0663    1.9021    0.5399 H   0  0  0  0  0  0
    3.4279    2.3791    1.5056 H   0  0  0  0  0  0
    0.4942    3.2142    1.9775 H   0  0  0  0  0  0
    4.1580    4.0302    2.5172 H   0  0  0  0  0  0
    3.8233    5.5155    1.6230 H   0  0  0  0  0  0
    3.7099    5.4815    3.3839 H   0  0  0  0  0  0
   -1.6969   13.1813    2.5901 H   0  0  0  0  0  0
   -2.0642   14.7454    3.2459 H   0  0  0  0  0  0
   -1.4551   14.6881    0.7060 H   0  0  0  0  0  0
    1.0042   16.9752    0.0198 H   0  0  0  0  0  0
    1.6565   15.4118   -0.4855 H   0  0  0  0  0  0
   -0.0418   15.7952   -0.7729 H   0  0  0  0  0  0
    2.4959   15.1281    1.9009 H   0  0  0  0  0  0
    1.6754   16.5285    2.5910 H   0  0  0  0  0  0
    1.3805   14.9108    3.2319 H   0  0  0  0  0  0
    6.1078   -0.0939    1.9019 H   0  0  0  0  0  0
    8.2089   -1.5434   -2.3681 H   0  0  0  0  0  0
    4.8961   -1.8762   -2.3567 H   0  0  0  0  0  0
    8.4656    0.4968    1.4137 H   0  0  0  0  0  0
    9.5176   -0.2279   -0.7213 H   0  0  0  0  0  0
  1  2  1  0  0  0
  1  6  1  0  0  0
  1 38  1  0  0  0
  1 39  1  0  0  0
  2  3  2  0  0  0
  2 40  1  0  0  0
  3  5  1  0  0  0
  3  4  1  0  0  0
  4 27  1  0  0  0
  4 41  1  0  0  0
  4 42  1  0  0  0
  5 43  1  0  0  0
  5 44  1  0  0  0
  5 45  1  0  0  0
  6  9  1  0  0  0
  6 46  1  0  0  0
  6 47  1  0  0  0
  7 11  1  0  0  0
  7  8  1  0  0  0
  7 48  1  0  0  0
  7 49  1  0  0  0
  8  9  2  0  0  0
  8 50  1  0  0  0
  9 10  1  0  0  0
 10 51  1  0  0  0
 10 52  1  0  0  0
 10 53  1  0  0  0
 11 14  1  0  0  0
 11 54  1  0  0  0
 11 55  1  0  0  0
 12 16  1  0  0  0
 12 13  1  0  0  0
 12 56  1  0  0  0
 12 57  1  0  0  0
 13 14  2  0  0  0
 13 58  1  0  0  0
 14 15  1  0  0  0
 15 59  1  0  0  0
 15 60  1  0  0  0
 15 61  1  0  0  0
 16 25  1  0  0  0
 16 62  1  0  0  0
 16 63  1  0  0  0
 17 18  1  0  0  0
 17 19  1  0  0  0
 17 64  1  0  0  0
 17 65  1  0  0  0
 18 20  2  0  0  0
 18 66  1  0  0  0
 19 32  2  0  0  0
 19 33  1  0  0  0
 20 21  1  0  0  0
 20 22  1  0  0  0
 21 23  1  0  0  0
 21 67  1  0  0  0
 21 68  1  0  0  0
 22 69  1  0  0  0
 22 70  1  0  0  0
 22 71  1  0  0  0
 23 24  1  0  0  0
 23 72  1  0  0  0
 23 73  1  0  0  0
 24 25  2  0  0  0
 24 74  1  0  0  0
 25 26  1  0  0  0
 26 75  1  0  0  0
 26 76  1  0  0  0
 26 77  1  0  0  0
 27 28  1  0  0  0
 27 78  1  0  0  0
 27 79  1  0  0  0
 28 29  2  0  0  0
 28 80  1  0  0  0
 29 30  1  0  0  0
 29 31  1  0  0  0
 30 81  1  0  0  0
 30 82  1  0  0  0
 30 83  1  0  0  0
 31 84  1  0  0  0
 31 85  1  0  0  0
 31 86  1  0  0  0
 32 34  1  0  0  0
 32 35  1  0  0  0
 33 36  2  0  0  0
 33 87  1  0  0  0
 34 37  2  0  0  0
 34 88  1  0  0  0
 35 89  1  0  0  0
 36 37  1  0  0  0
 36 90  1  0  0  0
 37 91  1  0  0  0
M  END
> <i_ionizer_Ion_state_n>
0

> <i_ionizer_Tot_Q>
0

> <s_ionizer_Ion_centers>


> <s_ionizer_Ion_types>


> <s_ionizer_Ion_ctrs_in>


> <r_ionizer_Ionization_penalty>
0.00059219

> <r_ionizer_Ionization_penalty_charging>
0

> <r_ionizer_Ionization_penalty_neutral>
0.00059219

> <s_st_EZ_1>
1_2_3_4_E

> <s_st_EZ_2>
7_8_9_6_E

> <s_st_EZ_3>
12_13_14_11_E

> <s_st_EZ_4>
17_18_20_21_E

> <s_st_EZ_5>
23_24_25_16_E

> <i_mmod_Serial_Number-OPLS-2005>
791

> <i_i_glide_lignum>
782

> <r_i_docking_score>
-6.00758

> <r_i_glide_gscore>
-6.00758

> <r_i_glide_lipo>
-2.4777

> <r_i_glide_hbond>
-0.899932

> <r_i_glide_metal>
0

> <r_i_glide_eburp>
-4.36391e-17

> <r_i_glide_evdw>
-39.3884

> <r_i_glide_ecoul>
-7.44553

> <r_i_glide_erotb>
1.57032

> <r_i_glide_esite>
-0.304647

> <r_i_glide_emodel>
-73.2726

> <r_i_glide_energy>
-46.8339

> <r_i_glide_einternal>
9.59747

> <i_i_glide_confnum>
798

> <i_i_glide_posenum>
405

$$$$
C00262
                    3D
 Structure written by MMmdl.
 14 15  0  0  1  0            999 V2000
    1.4804    2.0974    3.4997 C   0  0  0  0  0  0
    2.7371    1.8602    3.0108 C   0  0  0  0  0  0
    0.8243    3.3707    3.1158 C   0  0  0  0  0  0
    1.0399    1.0453    4.3022 N   0  0  0  0  0  0
    3.5095    2.6514    2.1893 N   0  0  0  0  0  0
    3.1007    0.6260    3.5174 N   0  0  0  0  0  0
    1.6001    4.1348    2.3078 N   0  0  0  0  0  0
   -0.2999    3.6999    3.4880 O   0  0  0  0  0  0
    2.0698    0.1991    4.2640 C   0  0  0  0  0  0
    2.8988    3.7648    1.8720 C   0  0  0  0  0  0
    3.9717    0.1410    3.3568 H   0  0  0  0  0  0
    1.2213    5.0192    2.0031 H   0  0  0  0  0  0
    2.0736   -0.7456    4.7874 H   0  0  0  0  0  0
    3.3599    4.5145    1.2274 H   0  0  0  0  0  0
  1  2  2  0  0  0
  1  3  1  0  0  0
  1  4  1  0  0  0
  2  5  1  0  0  0
  2  6  1  0  0  0
  3  7  1  0  0  0
  3  8  2  0  0  0
  4  9  2  0  0  0
  5 10  2  0  0  0
  6  9  1  0  0  0
  6 11  1  0  0  0
  7 10  1  0  0  0
  7 12  1  0  0  0
  9 13  1  0  0  0
 10 14  1  0  0  0
M  END
> <i_ionizer_Ion_state_n>
0

> <i_ionizer_Tot_Q>
0

> <s_ionizer_Ion_centers>


> <s_ionizer_Ion_types>


> <s_ionizer_Ion_ctrs_in>


> <r_ionizer_Ionization_penalty>
1.87357e-05

> <r_ionizer_Ionization_penalty_charging>
0

> <r_ionizer_Ionization_penalty_neutral>
1.87357e-05

> <i_mmod_Serial_Number-OPLS-2005>
171

> <i_i_glide_lignum>
169

> <r_i_docking_score>
-6.00234

> <r_i_glide_gscore>
-6.00234

> <r_i_glide_lipo>
-0.178519

> <r_i_glide_hbond>
-0.5

> <r_i_glide_metal>
0

> <r_i_glide_eburp>
-2.5

> <r_i_glide_evdw>
-19.112

> <r_i_glide_ecoul>
-5.84118

> <r_i_glide_erotb>
0

> <r_i_glide_esite>
-0.710746

> <r_i_glide_emodel>
-35.1445

> <r_i_glide_energy>
-24.9532

> <r_i_glide_einternal>
0

> <i_i_glide_confnum>
1

> <i_i_glide_posenum>
964

$$$$
C01019
                    3D
 Structure written by MMmdl.
 23 23  0  0  1  0            999 V2000
    3.9134    0.7662    3.3926 C   0  0  2  0  0  0
    4.0789    2.2135    2.8913 C   0  0  1  0  0  0
    2.6232    0.6377    4.2214 C   0  0  1  0  0  0
    5.0428    0.3834    4.1546 O   0  0  0  0  0  0
    2.8008    2.6654    2.1476 C   0  0  1  0  0  0
    4.3515    3.1114    3.9548 O   0  0  0  0  0  0
    1.4249    1.1093    3.3614 C   0  0  1  0  0  0
    2.4469   -0.6928    4.6732 O   0  0  0  0  0  0
    1.6418    2.4307    2.9547 O   0  0  0  0  0  0
    2.8158    4.1380    1.7105 C   0  0  0  0  0  0
    1.1973    0.2420    2.2694 O   0  0  0  0  0  0
    3.8627    0.0947    2.5342 H   0  0  0  0  0  0
    4.9279    2.2613    2.2082 H   0  0  0  0  0  0
    2.6765    1.2834    5.0993 H   0  0  0  0  0  0
    4.8708   -0.4757    4.5103 H   0  0  0  0  0  0
    2.7105    2.0676    1.2394 H   0  0  0  0  0  0
    5.1200    2.8083    4.4130 H   0  0  0  0  0  0
    0.5109    1.1059    3.9560 H   0  0  0  0  0  0
    3.2443   -0.9755    5.0939 H   0  0  0  0  0  0
    1.9311    4.3724    1.1183 H   0  0  0  0  0  0
    2.8232    4.8136    2.5659 H   0  0  0  0  0  0
    3.6909    4.3575    1.0984 H   0  0  0  0  0  0
    2.0092    0.1557    1.7936 H   0  0  0  0  0  0
  1  2  1  0  0  0
  1  3  1  0  0  0
  1  4  1  0  0  0
  1 12  1  0  0  0
  2  5  1  0  0  0
  2  6  1  0  0  0
  2 13  1  0  0  0
  3  7  1  0  0  0
  3  8  1  0  0  0
  3 14  1  0  0  0
  4 15  1  0  0  0
  5  9  1  0  0  0
  5 10  1  0  0  0
  5 16  1  0  0  0
  6 17  1  0  0  0
  7 11  1  0  0  0
  7  9  1  0  0  0
  7 18  1  0  0  0
  8 19  1  0  0  0
 10 20  1  0  0  0
 10 21  1  0  0  0
 10 22  1  0  0  0
 11 23  1  0  0  0
M  END
> <i_ionizer_Ion_state_n>
0

> <i_ionizer_Tot_Q>
0

> <s_ionizer_Ion_centers>


> <s_ionizer_Ion_types>


> <s_ionizer_Ion_ctrs_in>


> <r_ionizer_Ionization_penalty>
0

> <r_ionizer_Ionization_penalty_charging>
0

> <r_ionizer_Ionization_penalty_neutral>
0

> <s_st_Chirality_1>
1_R_4_3_2_12

> <s_st_Chirality_2>
2_R_6_1_5_13

> <s_st_Chirality_3>
3_S_8_7_1_14

> <s_st_Chirality_4>
5_S_9_2_10_16

> <s_st_Chirality_5>
7_R_9_11_3_18

> <i_mmod_Serial_Number-OPLS-2005>
372

> <i_i_glide_lignum>
368

> <r_i_docking_score>
-5.99415

> <r_i_glide_gscore>
-5.99415

> <r_i_glide_lipo>
-0.423461

> <r_i_glide_hbond>
-0.812072

> <r_i_glide_metal>
0

> <r_i_glide_eburp>
-2.5

> <r_i_glide_evdw>
-20.6224

> <r_i_glide_ecoul>
-6.05055

> <r_i_glide_erotb>
0

> <r_i_glide_esite>
-0.00377646

> <r_i_glide_emodel>
-33.497

> <r_i_glide_energy>
-26.6729

> <r_i_glide_einternal>
1.30657

> <i_i_glide_confnum>
1

> <i_i_glide_posenum>
70

$$$$
C04778
                    3D
 Structure written by MMmdl.
 41 43  0  0  1  0            999 V2000
    1.9906    3.9972    2.6175 N   0  0  0  0  0  0
    1.2642    4.8854    1.8444 C   0  0  0  0  0  0
    3.4632    3.7557    2.5308 C   0  0  2  0  0  0
    1.0829    3.4306    3.4387 C   0  0  0  0  0  0
   -0.0818    4.7604    2.2947 C   0  0  0  0  0  0
    1.6119    5.7805    0.8167 C   0  0  0  0  0  0
    3.6656    2.6162    1.7460 O   0  0  0  0  0  0
    4.0114    3.4573    3.9296 C   0  0  1  0  0  0
   -0.1815    3.8275    3.3130 N   0  0  0  0  0  0
   -1.0708    5.5582    1.6796 C   0  0  0  0  0  0
    0.6124    6.5716    0.2123 C   0  0  0  0  0  0
    4.2184    1.5509    2.5199 C   0  0  1  0  0  0
    3.9417    1.9393    3.9743 C   0  0  1  0  0  0
    5.3300    3.9485    4.0736 O   0  0  0  0  0  0
   -0.7334    6.4593    0.6450 C   0  0  0  0  0  0
    0.9994    7.5346   -0.8960 C   0  0  0  0  0  0
    3.6171    0.2144    2.0532 C   0  0  0  0  0  0
    4.8642    1.3948    4.8970 O   0  0  0  0  0  0
   -1.8278    7.2994    0.0106 C   0  0  0  0  0  0
    2.3230    0.4065    1.5065 O   0  0  0  0  0  0
    0.9546   -0.0603    2.5631 P   0  0  0  0  0  0
    1.0262    1.0119    3.6725 O   0  0  0  0  0  0
    3.8645    4.6561    2.0638 H   0  0  0  0  0  0
    1.3628    2.6860    4.1698 H   0  0  0  0  0  0
    2.6410    5.8582    0.4980 H   0  0  0  0  0  0
    3.3941    3.9149    4.7042 H   0  0  0  0  0  0
   -2.0943    5.4712    2.0130 H   0  0  0  0  0  0
    5.2926    1.5624    2.3280 H   0  0  0  0  0  0
    2.9328    1.6344    4.2559 H   0  0  0  0  0  0
    5.7256    3.4806    4.7950 H   0  0  0  0  0  0
    2.0694    7.4954   -1.1019 H   0  0  0  0  0  0
    0.4723    7.2879   -1.8178 H   0  0  0  0  0  0
    0.7501    8.5585   -0.6168 H   0  0  0  0  0  0
    4.2896   -0.3015    1.3671 H   0  0  0  0  0  0
    3.4921   -0.4451    2.9118 H   0  0  0  0  0  0
    4.6623    0.4644    4.9765 H   0  0  0  0  0  0
   -1.6204    8.3612    0.1447 H   0  0  0  0  0  0
   -1.8983    7.0917   -1.0573 H   0  0  0  0  0  0
   -2.8004    7.0899    0.4568 H   0  0  0  0  0  0
   -0.2464    0.0423    1.5968 O   0  5  0  0  0  0
    1.3643   -1.4885    2.9826 O   0  5  0  0  0  0
  1  2  1  0  0  0
  1  3  1  0  0  0
  1  4  1  0  0  0
  2  5  2  0  0  0
  2  6  1  0  0  0
  3  7  1  0  0  0
  3  8  1  0  0  0
  3 23  1  0  0  0
  4  9  2  0  0  0
  4 24  1  0  0  0
  5 10  1  0  0  0
  5  9  1  0  0  0
  6 11  2  0  0  0
  6 25  1  0  0  0
  7 12  1  0  0  0
  8 13  1  0  0  0
  8 14  1  0  0  0
  8 26  1  0  0  0
 10 15  2  0  0  0
 10 27  1  0  0  0
 11 16  1  0  0  0
 11 15  1  0  0  0
 12 17  1  0  0  0
 12 13  1  0  0  0
 12 28  1  0  0  0
 13 18  1  0  0  0
 13 29  1  0  0  0
 14 30  1  0  0  0
 15 19  1  0  0  0
 16 31  1  0  0  0
 16 32  1  0  0  0
 16 33  1  0  0  0
 17 20  1  0  0  0
 17 34  1  0  0  0
 17 35  1  0  0  0
 18 36  1  0  0  0
 19 37  1  0  0  0
 19 38  1  0  0  0
 19 39  1  0  0  0
 20 21  1  0  0  0
 21 22  2  0  0  0
 21 40  1  0  0  0
 21 41  1  0  0  0
M  CHG  2  40  -1  41  -1
M  END
> <i_ionizer_Ion_state_n>
6

> <i_ionizer_Tot_Q>
-2

> <s_ionizer_Ion_centers>
40_41

> <s_ionizer_Ion_types>
OM_OM

> <s_ionizer_Ion_ctrs_in>
22_23

> <r_ionizer_Ionization_penalty>
0.410695

> <r_ionizer_Ionization_penalty_charging>
1.49178e-05

> <r_ionizer_Ionization_penalty_neutral>
0.41068

> <s_st_Chirality_1>
3_R_7_1_8_23

> <s_st_Chirality_2>
8_R_14_3_13_26

> <s_st_Chirality_3>
12_R_7_13_17_28

> <s_st_Chirality_4>
13_R_18_8_12_29

> <i_mmod_Serial_Number-OPLS-2005>
613

> <i_i_glide_lignum>
607

> <r_i_docking_score>
-5.98748

> <r_i_glide_gscore>
-5.98748

> <r_i_glide_lipo>
-1.1513

> <r_i_glide_hbond>
-1.00192

> <r_i_glide_metal>
0

> <r_i_glide_eburp>
-1.08883

> <r_i_glide_evdw>
-20.8504

> <r_i_glide_ecoul>
-8.42606

> <r_i_glide_erotb>
0.516735

> <r_i_glide_esite>
-0.751527

> <r_i_glide_emodel>
-58.5506

> <r_i_glide_energy>
-29.2764

> <r_i_glide_einternal>
8.41223

> <i_i_glide_confnum>
5

> <i_i_glide_posenum>
59

$$$$
C03360
                    3D
 Structure written by MMmdl.
 18 18  0  0  1  0            999 V2000
   -0.3978    5.1493    2.7040 P   0  0  0  0  0  0
    0.5943    4.2185    3.8678 O   0  0  0  0  0  0
    0.5652    5.3000    1.5046 O   0  0  0  0  0  0
    1.2413    3.1087    3.4024 C   0  0  0  0  0  0
    0.9000    1.8371    3.8999 C   0  0  0  0  0  0
    2.2605    3.2309    2.4390 C   0  0  0  0  0  0
    1.5678    0.6903    3.4286 C   0  0  0  0  0  0
    2.9290    2.0849    1.9669 C   0  0  0  0  0  0
    2.5896    0.8012    2.4559 C   0  0  0  0  0  0
    3.2892   -0.4007    1.9607 N   0  3  0  0  0  0
    4.2289   -0.2491    1.1863 O   0  0  0  0  0  0
    2.8996   -1.4996    2.3432 O   0  5  0  0  0  0
    0.1179    1.7439    4.6388 H   0  0  0  0  0  0
    2.5230    4.2069    2.0578 H   0  0  0  0  0  0
    1.2851   -0.2752    3.8213 H   0  0  0  0  0  0
    3.7039    2.2032    1.2241 H   0  0  0  0  0  0
   -1.5950    4.1971    2.4898 O   0  5  0  0  0  0
   -0.6981    6.4398    3.4995 O   0  5  0  0  0  0
  1  2  1  0  0  0
  1  3  2  0  0  0
  1 17  1  0  0  0
  1 18  1  0  0  0
  2  4  1  0  0  0
  4  5  2  0  0  0
  4  6  1  0  0  0
  5  7  1  0  0  0
  5 13  1  0  0  0
  6  8  2  0  0  0
  6 14  1  0  0  0
  7  9  2  0  0  0
  7 15  1  0  0  0
  8  9  1  0  0  0
  8 16  1  0  0  0
  9 10  1  0  0  0
 10 11  2  0  0  0
 10 12  1  0  0  0
M  CHG  4  10   1  12  -1  17  -1  18  -1
M  END
> <i_ionizer_Ion_state_n>
3

> <i_ionizer_Tot_Q>
-2

> <s_ionizer_Ion_centers>
17_18

> <s_ionizer_Ion_types>
OM_OM

> <s_ionizer_Ion_ctrs_in>
3_4

> <r_ionizer_Ionization_penalty>
1.49178e-05

> <r_ionizer_Ionization_penalty_charging>
1.49178e-05

> <r_ionizer_Ionization_penalty_neutral>
0

> <i_mmod_Serial_Number-OPLS-2005>
537

> <i_i_glide_lignum>
531

> <r_i_docking_score>
-5.98572

> <r_i_glide_gscore>
-5.98572

> <r_i_glide_lipo>
-0.521775

> <r_i_glide_hbond>
-1.17739

> <r_i_glide_metal>
0

> <r_i_glide_eburp>
-2.54337

> <r_i_glide_evdw>
-18.3785

> <r_i_glide_ecoul>
-2.18149

> <r_i_glide_erotb>
0.406803

> <r_i_glide_esite>
-0.461557

> <r_i_glide_emodel>
-50.1805

> <r_i_glide_energy>
-20.56

> <r_i_glide_einternal>
0.289256

> <i_i_glide_confnum>
4

> <i_i_glide_posenum>
831

$$$$
C00099
                    3D
 Structure written by MMmdl.
 13 12  0  0  1  0            999 V2000
    0.9965    1.1525    3.9971 C   0  0  0  0  0  0
    0.8963    2.5989    3.4998 C   0  0  0  0  0  0
    2.4519    0.6731    4.1459 C   0  0  0  0  0  0
   -0.0406    3.3121    3.9226 O   0  0  0  0  0  0
    0.4591    0.5122    3.2966 H   0  0  0  0  0  0
    0.4778    1.0832    4.9540 H   0  0  0  0  0  0
    2.9586    0.6738    3.1797 H   0  0  0  0  0  0
    3.0109    1.3376    4.8064 H   0  0  0  0  0  0
    3.4712   -0.9786    4.7871 H   0  0  0  0  0  0
    2.0687   -0.7002    5.6097 H   0  0  0  0  0  0
    1.7760    2.9668    2.6922 O   0  5  0  0  0  0
    2.5074   -0.6895    4.7001 N   0  3  0  0  0  0
    2.0196   -1.3231    4.0832 H   0  0  0  0  0  0
  1  2  1  0  0  0
  1  3  1  0  0  0
  1  5  1  0  0  0
  1  6  1  0  0  0
  2  4  2  0  0  0
  2 11  1  0  0  0
  3  7  1  0  0  0
  3  8  1  0  0  0
  3 12  1  0  0  0
  9 12  1  0  0  0
 10 12  1  0  0  0
 12 13  1  0  0  0
M  CHG  2  11  -1  12   1
M  END
> <i_ionizer_Ion_state_n>
3

> <i_ionizer_Tot_Q>
0

> <s_ionizer_Ion_centers>
11_12

> <s_ionizer_Ion_types>
OM_N5

> <s_ionizer_Ion_ctrs_in>
4_6

> <r_ionizer_Ionization_penalty>
0.000779521

> <r_ionizer_Ionization_penalty_charging>
0.000779521

> <r_ionizer_Ionization_penalty_neutral>
0

> <i_mmod_Serial_Number-OPLS-2005>
70

> <i_i_glide_lignum>
69

> <r_i_docking_score>
-5.96423

> <r_i_glide_gscore>
-5.96423

> <r_i_glide_lipo>
-0.198978

> <r_i_glide_hbond>
-1.48794

> <r_i_glide_metal>
0

> <r_i_glide_eburp>
-2.5

> <r_i_glide_evdw>
-7.87622

> <r_i_glide_ecoul>
-7.00542

> <r_i_glide_erotb>
0

> <r_i_glide_esite>
-0.446674

> <r_i_glide_emodel>
-37.0552

> <r_i_glide_energy>
-14.8816

> <r_i_glide_einternal>
0.34609

> <i_i_glide_confnum>
1

> <i_i_glide_posenum>
319

$$$$
C00079
                    3D
 Structure written by MMmdl.
 23 23  0  0  1  0            999 V2000
    3.5264    2.4941    2.5597 C   0  0  0  0  0  0
    3.5784    1.0836    3.1265 C   0  0  0  0  0  0
    2.9178    2.7394    1.3102 C   0  0  0  0  0  0
    4.0888    3.5665    3.2839 C   0  0  0  0  0  0
    2.5366    0.8127    4.2384 C   0  0  1  0  0  0
    2.8699    4.0477    0.7907 C   0  0  0  0  0  0
    4.0411    4.8745    2.7636 C   0  0  0  0  0  0
    1.0979    1.0953    3.7804 C   0  0  0  0  0  0
    3.4318    5.1154    1.5170 C   0  0  0  0  0  0
    0.5040    2.0669    4.3003 O   0  0  0  0  0  0
    3.4591    0.3675    2.3116 H   0  0  0  0  0  0
    4.5822    0.9174    3.5195 H   0  0  0  0  0  0
    2.4788    1.9263    0.7504 H   0  0  0  0  0  0
    4.5558    3.3892    4.2416 H   0  0  0  0  0  0
    2.7706    1.4409    5.0998 H   0  0  0  0  0  0
    2.3999    4.2320   -0.1641 H   0  0  0  0  0  0
    4.4710    5.6933    3.3214 H   0  0  0  0  0  0
    1.9386   -0.7247    5.4347 H   0  0  0  0  0  0
    2.3610   -1.1884    3.9120 H   0  0  0  0  0  0
    3.3940    6.1186    1.1188 H   0  0  0  0  0  0
    2.6034   -0.5876    4.6869 N   0  3  0  0  0  0
    3.5349   -0.8013    5.0117 H   0  0  0  0  0  0
    0.6270    0.3528    2.8917 O   0  5  0  0  0  0
  1  2  1  0  0  0
  1  3  1  0  0  0
  1  4  2  0  0  0
  2  5  1  0  0  0
  2 11  1  0  0  0
  2 12  1  0  0  0
  3  6  2  0  0  0
  3 13  1  0  0  0
  4  7  1  0  0  0
  4 14  1  0  0  0
  5  8  1  0  0  0
  5 15  1  0  0  0
  5 21  1  0  0  0
  6  9  1  0  0  0
  6 16  1  0  0  0
  7  9  2  0  0  0
  7 17  1  0  0  0
  8 10  2  0  0  0
  8 23  1  0  0  0
  9 20  1  0  0  0
 18 21  1  0  0  0
 19 21  1  0  0  0
 21 22  1  0  0  0
M  CHG  2  21   1  23  -1
M  END
> <i_ionizer_Ion_state_n>
3

> <i_ionizer_Tot_Q>
0

> <s_ionizer_Ion_centers>
21_23

> <s_ionizer_Ion_types>
N5_OM

> <s_ionizer_Ion_ctrs_in>
9_11

> <r_ionizer_Ionization_penalty>
0.000779521

> <r_ionizer_Ionization_penalty_charging>
0.000779521

> <r_ionizer_Ionization_penalty_neutral>
0

> <s_st_Chirality_1>
5_S_21_8_2_15

> <i_mmod_Serial_Number-OPLS-2005>
55

> <i_i_glide_lignum>
54

> <r_i_docking_score>
-5.95522

> <r_i_glide_gscore>
-5.95522

> <r_i_glide_lipo>
-0.652841

> <r_i_glide_hbond>
-0.620789

> <r_i_glide_metal>
0

> <r_i_glide_eburp>
-2.5

> <r_i_glide_evdw>
-16.4562

> <r_i_glide_ecoul>
-4.62743

> <r_i_glide_erotb>
0.639149

> <r_i_glide_esite>
-1.04149

> <r_i_glide_emodel>
-42.5562

> <r_i_glide_energy>
-21.0837

> <r_i_glide_einternal>
0.34676

> <i_i_glide_confnum>
1

> <i_i_glide_posenum>
282

$$$$
C05404
                    3D
 Structure written by MMmdl.
 66 68  0  0  1  0            999 V2000
    2.3116    3.1783    3.0417 C   0  0  2  0  0  0
    3.0860    2.5215    4.0552 O   0  0  0  0  0  0
    2.1090    4.6618    3.4299 C   0  0  0  0  0  0
    1.0117    2.3822    2.7607 C   0  0  1  0  0  0
    3.4710    1.2049    3.7690 C   0  0  2  0  0  0
    1.7723    5.4335    2.2662 O   0  0  0  0  0  0
    1.3337    0.8983    2.4988 C   0  0  1  0  0  0
    0.1109    2.5171    3.8459 O   0  0  0  0  0  0
    4.1889    1.1262    2.5768 O   0  0  0  0  0  0
    2.1949    0.3458    3.6482 C   0  0  1  0  0  0
    0.4530    5.2784    1.7845 C   0  0  1  0  0  0
    0.1234    0.1742    2.3668 O   0  0  0  0  0  0
    5.3184    0.2674    2.6518 C   0  0  0  0  0  0
    2.5099   -1.0229    3.4818 O   0  0  0  0  0  0
   -0.5374    5.6738    2.7109 O   0  0  0  0  0  0
    0.2672    6.0411    0.4573 C   0  0  1  0  0  0
    5.9342    0.0887    1.2548 C   0  0  2  0  0  0
   -0.5065    7.0655    3.0745 C   0  0  1  0  0  0
    0.2757    7.5560    0.7256 C   0  0  2  0  0  0
    1.2967    5.6658   -0.4520 O   0  0  0  0  0  0
    5.1885   -0.9458    0.3864 C   0  0  2  0  0  0
    7.2943   -0.2996    1.4175 O   0  0  0  0  0  0
   -0.7700    7.9047    1.8023 C   0  0  1  0  0  0
   -1.5314    7.2696    4.2035 C   0  0  0  0  0  0
    0.0322    8.2982   -0.4680 O   0  0  0  0  0  0
    5.9450   -1.1736   -0.9320 C   0  0  1  0  0  0
    3.9024   -0.4364    0.0917 O   0  0  0  0  0  0
    8.0230   -0.3704    0.2312 C   0  0  2  0  0  0
   -2.0954    7.6894    1.3176 O   0  0  0  0  0  0
   -1.6465    8.6393    4.5733 O   0  0  0  0  0  0
    7.4300   -1.4854   -0.6581 C   0  0  2  0  0  0
    5.3781   -2.2958   -1.5816 O   0  0  0  0  0  0
    9.3733   -0.6605    0.5078 O   0  0  0  0  0  0
    8.0991   -1.5335   -1.9040 O   0  0  0  0  0  0
    2.9109    3.1693    2.1317 H   0  0  0  0  0  0
    1.3706    4.8116    4.2178 H   0  0  0  0  0  0
    3.0472    5.0613    3.8155 H   0  0  0  0  0  0
    0.5084    2.7911    1.8852 H   0  0  0  0  0  0
    4.0850    0.8433    4.5960 H   0  0  0  0  0  0
    1.8729    0.8090    1.5544 H   0  0  0  0  0  0
    0.4984    2.0877    4.5946 H   0  0  0  0  0  0
    1.6561    0.4315    4.5931 H   0  0  0  0  0  0
    0.2995    4.2058    1.6225 H   0  0  0  0  0  0
    0.2509   -0.6880    2.7325 H   0  0  0  0  0  0
    6.0688    0.6837    3.3259 H   0  0  0  0  0  0
    5.0210   -0.6984    3.0623 H   0  0  0  0  0  0
    3.0256   -1.3031    4.2221 H   0  0  0  0  0  0
   -0.6925    5.7493    0.0286 H   0  0  0  0  0  0
    5.9191    1.0593    0.7549 H   0  0  0  0  0  0
    0.4837    7.3025    3.4675 H   0  0  0  0  0  0
    1.2623    7.8375    1.0976 H   0  0  0  0  0  0
    2.1475    5.8795   -0.0431 H   0  0  0  0  0  0
    5.0949   -1.8886    0.9271 H   0  0  0  0  0  0
   -0.6745    8.9617    2.0537 H   0  0  0  0  0  0
   -2.5126    6.8965    3.9087 H   0  0  0  0  0  0
   -1.2302    6.6961    5.0806 H   0  0  0  0  0  0
    0.2494    9.2263   -0.3036 H   0  0  0  0  0  0
    5.8590   -0.2951   -1.5745 H   0  0  0  0  0  0
    3.7431   -0.5522   -0.8363 H   0  0  0  0  0  0
    8.0001    0.6002   -0.2685 H   0  0  0  0  0  0
   -2.4809    8.5493    1.0992 H   0  0  0  0  0  0
   -2.1486    9.1021    3.8884 H   0  0  0  0  0  0
    7.5405   -2.4399   -0.1399 H   0  0  0  0  0  0
    4.5810   -2.0109   -2.0036 H   0  0  0  0  0  0
    9.4206   -1.5540    0.8120 H   0  0  0  0  0  0
    7.9367   -0.7165   -2.3519 H   0  0  0  0  0  0
  1  2  1  0  0  0
  1  3  1  0  0  0
  1  4  1  0  0  0
  1 35  1  0  0  0
  2  5  1  0  0  0
  3  6  1  0  0  0
  3 36  1  0  0  0
  3 37  1  0  0  0
  4  7  1  0  0  0
  4  8  1  0  0  0
  4 38  1  0  0  0
  5  9  1  0  0  0
  5 10  1  0  0  0
  5 39  1  0  0  0
  6 11  1  0  0  0
  7 12  1  0  0  0
  7 10  1  0  0  0
  7 40  1  0  0  0
  8 41  1  0  0  0
  9 13  1  0  0  0
 10 14  1  0  0  0
 10 42  1  0  0  0
 11 15  1  0  0  0
 11 16  1  0  0  0
 11 43  1  0  0  0
 12 44  1  0  0  0
 13 17  1  0  0  0
 13 45  1  0  0  0
 13 46  1  0  0  0
 14 47  1  0  0  0
 15 18  1  0  0  0
 16 19  1  0  0  0
 16 20  1  0  0  0
 16 48  1  0  0  0
 17 21  1  0  0  0
 17 22  1  0  0  0
 17 49  1  0  0  0
 18 23  1  0  0  0
 18 24  1  0  0  0
 18 50  1  0  0  0
 19 25  1  0  0  0
 19 23  1  0  0  0
 19 51  1  0  0  0
 20 52  1  0  0  0
 21 26  1  0  0  0
 21 27  1  0  0  0
 21 53  1  0  0  0
 22 28  1  0  0  0
 23 29  1  0  0  0
 23 54  1  0  0  0
 24 30  1  0  0  0
 24 55  1  0  0  0
 24 56  1  0  0  0
 25 57  1  0  0  0
 26 31  1  0  0  0
 26 32  1  0  0  0
 26 58  1  0  0  0
 27 59  1  0  0  0
 28 33  1  0  0  0
 28 31  1  0  0  0
 28 60  1  0  0  0
 29 61  1  0  0  0
 30 62  1  0  0  0
 31 34  1  0  0  0
 31 63  1  0  0  0
 32 64  1  0  0  0
 33 65  1  0  0  0
 34 66  1  0  0  0
M  END
> <i_ionizer_Ion_state_n>
0

> <i_ionizer_Tot_Q>
0

> <s_ionizer_Ion_centers>


> <s_ionizer_Ion_types>


> <s_ionizer_Ion_ctrs_in>


> <r_ionizer_Ionization_penalty>
0

> <r_ionizer_Ionization_penalty_charging>
0

> <r_ionizer_Ionization_penalty_neutral>
0

> <s_st_Chirality_1>
1_R_2_4_3_35

> <s_st_Chirality_2>
4_S_8_7_1_38

> <s_st_Chirality_3>
5_S_2_9_10_39

> <s_st_Chirality_4>
7_S_12_10_4_40

> <s_st_Chirality_5>
10_R_14_5_7_42

> <s_st_Chirality_6>
11_S_15_6_16_43

> <s_st_Chirality_7>
16_R_20_11_19_48

> <s_st_Chirality_8>
17_R_22_21_13_49

> <s_st_Chirality_9>
18_R_15_23_24_50

> <s_st_Chirality_10>
19_S_25_16_23_51

> <s_st_Chirality_11>
21_R_27_26_17_53

> <s_st_Chirality_12>
23_S_29_19_18_54

> <s_st_Chirality_13>
26_S_32_31_21_58

> <s_st_Chirality_14>
31_R_34_28_26_63

> <s_st_Chirality_15>
28_R_22_33_31_60

> <i_mmod_Serial_Number-OPLS-2005>
688

> <i_i_glide_lignum>
681

> <r_i_docking_score>
-5.95315

> <r_i_glide_gscore>
-5.95315

> <r_i_glide_lipo>
-1.46483

> <r_i_glide_hbond>
-1.41462

> <r_i_glide_metal>
0

> <r_i_glide_eburp>
2.73219e-17

> <r_i_glide_evdw>
-9.53277

> <r_i_glide_ecoul>
-25.0086

> <r_i_glide_erotb>
0.642812

> <r_i_glide_esite>
-0.453037

> <r_i_glide_emodel>
-71.9004

> <r_i_glide_energy>
-34.5413

> <r_i_glide_einternal>
12.5963

> <i_i_glide_confnum>
45

> <i_i_glide_posenum>
129

$$$$
C05812
                    3D
 Structure written by MMmdl.
121121  0  0  1  0            999 V2000
    2.9338    1.6664    1.5577 C   0  0  0  0  0  0
    2.0894    1.0891    2.6803 C   0  0  0  0  0  0
    3.8037    2.8361    2.0433 C   0  0  0  0  0  0
    2.2336   -0.1050    3.2910 C   0  0  0  0  0  0
    1.2786   -0.5458    4.3834 C   0  0  0  0  0  0
    3.3201   -1.1192    2.9724 C   0  0  0  0  0  0
    0.7829    5.2874    2.7658 C   0  0  0  0  0  0
    1.7263    4.2026    2.2729 C   0  0  0  0  0  0
    0.3809    6.2445    1.6323 C   0  0  0  0  0  0
    2.9905    3.9559    2.6755 C   0  0  0  0  0  0
    3.7221    4.7413    3.7544 C   0  0  0  0  0  0
   -5.7277   10.0010    5.7403 C   0  0  0  0  0  0
   -4.4495    9.3683    5.2153 C   0  0  0  0  0  0
   -3.2330    9.3484    5.7993 C   0  0  0  0  0  0
   -2.0485    8.6893    5.1079 C   0  0  0  0  0  0
   -2.9160    9.9660    7.1537 C   0  0  0  0  0  0
   -2.4369    7.9823    3.7995 C   0  0  0  0  0  0
   -9.2452   12.0837    7.1691 C   0  0  0  0  0  0
   -8.0059   11.5038    6.5077 C   0  0  0  0  0  0
   -7.6028   11.6501    5.2280 C   0  0  0  0  0  0
   -6.3065   11.0175    4.7432 C   0  0  0  0  0  0
   -8.3599   12.4396    4.1699 C   0  0  0  0  0  0
   -8.4167    9.5203   11.3001 C   0  0  0  0  0  0
   -8.9519   10.6483   10.4358 C   0  0  0  0  0  0
   -8.3338   11.2521    9.3998 C   0  0  0  0  0  0
   -8.9988   12.3990    8.6531 C   0  0  0  0  0  0
   -6.9536   10.8689    8.8869 C   0  0  0  0  0  0
   -4.3820    7.6543   13.2571 C   0  0  0  0  0  0
   -5.3138    8.7293   12.7225 C   0  0  0  0  0  0
   -6.6219    8.9083   13.0022 C   0  0  0  0  0  0
   -7.4118   10.0301   12.3445 C   0  0  0  0  0  0
   -7.4273    8.0402   13.9582 C   0  0  0  0  0  0
   -1.8657    4.6796   15.1598 C   0  0  0  0  0  0
   -2.8782    5.6568   14.5921 C   0  0  0  0  0  0
   -4.2118    5.6153   14.7807 C   0  0  0  0  0  0
   -5.1288    6.6556   14.1557 C   0  0  0  0  0  0
   -4.9082    4.5484   15.6119 C   0  0  0  0  0  0
   -1.2900    7.1478    3.2538 C   0  0  0  0  0  0
   -0.8039    7.1278    1.9950 C   0  0  0  0  0  0
   -1.3538    7.9585    0.8445 C   0  0  0  0  0  0
   -0.6704    5.3599   15.8084 C   0  0  0  0  0  0
   -0.5500    5.4402   17.2160 C   0  0  0  0  0  0
    0.3358    5.9158   14.9927 C   0  0  0  0  0  0
    0.5645    6.0728   17.8111 C   0  0  0  0  0  0
   -1.5120    4.9028   18.0238 O   0  0  0  0  0  0
    1.4492    6.5476   15.5746 C   0  0  0  0  0  0
    1.5655    6.6277   16.9747 C   0  0  0  0  0  0
    0.6077    6.1093   19.1902 O   0  0  0  0  0  0
    1.7556    6.6693   19.8111 C   0  0  0  0  0  0
    2.2535    2.0142    0.7796 H   0  0  0  0  0  0
    3.5467    0.8995    1.0896 H   0  0  0  0  0  0
    1.2871    1.7354    3.0060 H   0  0  0  0  0  0
    4.5377    2.4663    2.7608 H   0  0  0  0  0  0
    4.3755    3.2472    1.2104 H   0  0  0  0  0  0
    1.8206   -0.7178    5.3136 H   0  0  0  0  0  0
    0.5096    0.2035    4.5743 H   0  0  0  0  0  0
    0.7826   -1.4741    4.0990 H   0  0  0  0  0  0
    2.8841   -1.9963    2.4939 H   0  0  0  0  0  0
    4.1021   -0.7305    2.3240 H   0  0  0  0  0  0
    3.8039   -1.4444    3.8938 H   0  0  0  0  0  0
   -0.1066    4.8012    3.1676 H   0  0  0  0  0  0
    1.2218    5.8567    3.5812 H   0  0  0  0  0  0
    1.3053    3.5701    1.5046 H   0  0  0  0  0  0
    1.2240    6.8830    1.3651 H   0  0  0  0  0  0
    0.1441    5.6665    0.7377 H   0  0  0  0  0  0
    3.0561    5.2998    4.4082 H   0  0  0  0  0  0
    4.2884    4.0616    4.3914 H   0  0  0  0  0  0
    4.4233    5.4428    3.3025 H   0  0  0  0  0  0
   -6.4512    9.2034    5.9121 H   0  0  0  0  0  0
   -5.5662   10.4870    6.6991 H   0  0  0  0  0  0
   -4.5600    8.8860    4.2546 H   0  0  0  0  0  0
   -1.5860    7.9692    5.7846 H   0  0  0  0  0  0
   -1.2911    9.4494    4.9119 H   0  0  0  0  0  0
   -3.7974   10.1303    7.7695 H   0  0  0  0  0  0
   -2.2577    9.3065    7.7198 H   0  0  0  0  0  0
   -2.4070   10.9212    7.0248 H   0  0  0  0  0  0
   -2.7715    8.7207    3.0752 H   0  0  0  0  0  0
   -3.2811    7.3161    3.9795 H   0  0  0  0  0  0
   -9.5843   12.9824    6.6603 H   0  0  0  0  0  0
  -10.0480   11.3514    7.0783 H   0  0  0  0  0  0
   -7.3920   10.9094    7.1690 H   0  0  0  0  0  0
   -5.5811   11.8095    4.5526 H   0  0  0  0  0  0
   -6.4770   10.5264    3.7839 H   0  0  0  0  0  0
   -9.4066   12.6000    4.4182 H   0  0  0  0  0  0
   -7.8928   13.4124    4.0165 H   0  0  0  0  0  0
   -8.3425   11.9035    3.2206 H   0  0  0  0  0  0
   -9.2275    8.9749   11.7787 H   0  0  0  0  0  0
   -7.9281    8.8023   10.6406 H   0  0  0  0  0  0
   -9.9420   10.9835   10.7092 H   0  0  0  0  0  0
   -8.3801   13.2938    8.7353 H   0  0  0  0  0  0
   -9.9420   12.6366    9.1468 H   0  0  0  0  0  0
   -6.6429    9.8752    9.2040 H   0  0  0  0  0  0
   -6.9469   10.8676    7.7967 H   0  0  0  0  0  0
   -6.2078   11.5864    9.2293 H   0  0  0  0  0  0
   -3.9516    7.1290   12.4039 H   0  0  0  0  0  0
   -3.5512    8.0869   13.8082 H   0  0  0  0  0  0
   -4.8428    9.4170   12.0348 H   0  0  0  0  0  0
   -6.7251   10.7335   11.8712 H   0  0  0  0  0  0
   -7.9327   10.5918   13.1210 H   0  0  0  0  0  0
   -6.8095    7.4728   14.6506 H   0  0  0  0  0  0
   -8.0848    8.6637   14.5645 H   0  0  0  0  0  0
   -8.0477    7.3382   13.4011 H   0  0  0  0  0  0
   -2.3614    4.0394   15.8905 H   0  0  0  0  0  0
   -1.5160    4.0234   14.3619 H   0  0  0  0  0  0
   -2.4645    6.4470   13.9818 H   0  0  0  0  0  0
   -5.6499    7.1860   14.9537 H   0  0  0  0  0  0
   -5.9006    6.1515   13.5721 H   0  0  0  0  0  0
   -4.2300    3.7610   15.9382 H   0  0  0  0  0  0
   -5.3558    4.9880   16.5028 H   0  0  0  0  0  0
   -5.7005    4.0781   15.0292 H   0  0  0  0  0  0
   -0.8262    6.5047    3.9879 H   0  0  0  0  0  0
   -2.3662    8.3170    1.0167 H   0  0  0  0  0  0
   -0.7133    8.8210    0.6600 H   0  0  0  0  0  0
   -1.3847    7.3602   -0.0664 H   0  0  0  0  0  0
    0.2581    5.8586   13.9168 H   0  0  0  0  0  0
   -1.4457    3.9609   18.0707 H   0  0  0  0  0  0
    2.2173    6.9721   14.9450 H   0  0  0  0  0  0
    2.4348    7.1203   17.3826 H   0  0  0  0  0  0
    1.6367    6.6244   20.8936 H   0  0  0  0  0  0
    2.6586    6.1130   19.5559 H   0  0  0  0  0  0
    1.8861    7.7172   19.5375 H   0  0  0  0  0  0
  1  3  1  0  0  0
  1  2  1  0  0  0
  1 50  1  0  0  0
  1 51  1  0  0  0
  2  4  2  0  0  0
  2 52  1  0  0  0
  3 10  1  0  0  0
  3 53  1  0  0  0
  3 54  1  0  0  0
  4  5  1  0  0  0
  4  6  1  0  0  0
  5 55  1  0  0  0
  5 56  1  0  0  0
  5 57  1  0  0  0
  6 58  1  0  0  0
  6 59  1  0  0  0
  6 60  1  0  0  0
  7  9  1  0  0  0
  7  8  1  0  0  0
  7 61  1  0  0  0
  7 62  1  0  0  0
  8 10  2  0  0  0
  8 63  1  0  0  0
  9 39  1  0  0  0
  9 64  1  0  0  0
  9 65  1  0  0  0
 10 11  1  0  0  0
 11 66  1  0  0  0
 11 67  1  0  0  0
 11 68  1  0  0  0
 12 21  1  0  0  0
 12 13  1  0  0  0
 12 69  1  0  0  0
 12 70  1  0  0  0
 13 14  2  0  0  0
 13 71  1  0  0  0
 14 16  1  0  0  0
 14 15  1  0  0  0
 15 17  1  0  0  0
 15 72  1  0  0  0
 15 73  1  0  0  0
 16 74  1  0  0  0
 16 75  1  0  0  0
 16 76  1  0  0  0
 17 38  1  0  0  0
 17 77  1  0  0  0
 17 78  1  0  0  0
 18 19  1  0  0  0
 18 26  1  0  0  0
 18 79  1  0  0  0
 18 80  1  0  0  0
 19 20  2  0  0  0
 19 81  1  0  0  0
 20 21  1  0  0  0
 20 22  1  0  0  0
 21 82  1  0  0  0
 21 83  1  0  0  0
 22 84  1  0  0  0
 22 85  1  0  0  0
 22 86  1  0  0  0
 23 31  1  0  0  0
 23 24  1  0  0  0
 23 87  1  0  0  0
 23 88  1  0  0  0
 24 25  2  0  0  0
 24 89  1  0  0  0
 25 26  1  0  0  0
 25 27  1  0  0  0
 26 90  1  0  0  0
 26 91  1  0  0  0
 27 92  1  0  0  0
 27 93  1  0  0  0
 27 94  1  0  0  0
 28 29  1  0  0  0
 28 36  1  0  0  0
 28 95  1  0  0  0
 28 96  1  0  0  0
 29 30  2  0  0  0
 29 97  1  0  0  0
 30 31  1  0  0  0
 30 32  1  0  0  0
 31 98  1  0  0  0
 31 99  1  0  0  0
 32100  1  0  0  0
 32101  1  0  0  0
 32102  1  0  0  0
 33 34  1  0  0  0
 33 41  1  0  0  0
 33103  1  0  0  0
 33104  1  0  0  0
 34 35  2  0  0  0
 34105  1  0  0  0
 35 36  1  0  0  0
 35 37  1  0  0  0
 36106  1  0  0  0
 36107  1  0  0  0
 37108  1  0  0  0
 37109  1  0  0  0
 37110  1  0  0  0
 38 39  2  0  0  0
 38111  1  0  0  0
 39 40  1  0  0  0
 40112  1  0  0  0
 40113  1  0  0  0
 40114  1  0  0  0
 41 42  2  0  0  0
 41 43  1  0  0  0
 42 44  1  0  0  0
 42 45  1  0  0  0
 43 46  2  0  0  0
 43115  1  0  0  0
 44 47  2  0  0  0
 44 48  1  0  0  0
 45116  1  0  0  0
 46 47  1  0  0  0
 46117  1  0  0  0
 47118  1  0  0  0
 48 49  1  0  0  0
 49119  1  0  0  0
 49120  1  0  0  0
 49121  1  0  0  0
M  END
> <i_ionizer_Ion_state_n>
0

> <i_ionizer_Tot_Q>
0

> <s_ionizer_Ion_centers>


> <s_ionizer_Ion_types>


> <s_ionizer_Ion_ctrs_in>


> <r_ionizer_Ionization_penalty>
0.00059219

> <r_ionizer_Ionization_penalty_charging>
0

> <r_ionizer_Ionization_penalty_neutral>
0.00059219

> <s_st_EZ_1>
7_8_10_3_E

> <s_st_EZ_2>
12_13_14_15_E

> <s_st_EZ_3>
18_19_20_21_E

> <s_st_EZ_4>
23_24_25_26_E

> <s_st_EZ_5>
28_29_30_31_E

> <s_st_EZ_6>
33_34_35_36_E

> <s_st_EZ_7>
17_38_39_9_E

> <i_mmod_Serial_Number-OPLS-2005>
798

> <i_i_glide_lignum>
789

> <r_i_docking_score>
-5.95082

> <r_i_glide_gscore>
-5.95082

> <r_i_glide_lipo>
-2.24467

> <r_i_glide_hbond>
-0.5

> <r_i_glide_metal>
0

> <r_i_glide_eburp>
0

> <r_i_glide_evdw>
-45.5697

> <r_i_glide_ecoul>
-5.02847

> <r_i_glide_erotb>
1.06744

> <r_i_glide_esite>
-0.125175

> <r_i_glide_emodel>
-74.3398

> <r_i_glide_energy>
-50.5981

> <r_i_glide_einternal>
16.0727

> <i_i_glide_confnum>
1035

> <i_i_glide_posenum>
852

$$$$
C05345
                    3D
 Structure written by MMmdl.
 27 27  0  0  1  0            999 V2000
    3.5663    2.8238    1.8187 C   0  0  1  0  0  0
    3.4686    2.2020    3.1004 O   0  0  0  0  0  0
    3.4191    1.6839    0.7912 C   0  0  2  0  0  0
    2.5039    3.9314    1.7159 C   0  0  0  0  0  0
    2.8834    0.9434    2.9886 C   0  0  1  0  0  0
    3.4144    0.4217    1.6447 C   0  0  1  0  0  0
    4.5183    1.6605   -0.0987 O   0  0  0  0  0  0
    1.2472    3.4450    2.1522 O   0  0  0  0  0  0
    3.3288    0.1153    4.2101 C   0  0  0  0  0  0
    1.4721    1.0441    2.9730 O   0  0  0  0  0  0
    2.6073   -0.5955    1.0811 O   0  0  0  0  0  0
    0.1153    4.7014    2.7415 P   0  0  0  0  0  0
    4.7326    0.1001    4.3850 O   0  0  0  0  0  0
    0.8854    5.2978    3.9415 O   0  0  0  0  0  0
    4.5563    3.2779    1.7545 H   0  0  0  0  0  0
    2.4892    1.7802    0.2323 H   0  0  0  0  0  0
    2.8090    4.8099    2.2842 H   0  0  0  0  0  0
    2.4031    4.2566    0.6805 H   0  0  0  0  0  0
    4.4313    0.0566    1.8008 H   0  0  0  0  0  0
    4.4580    0.8721   -0.6161 H   0  0  0  0  0  0
    2.8845    0.5513    5.1057 H   0  0  0  0  0  0
    2.9457   -0.9019    4.1187 H   0  0  0  0  0  0
    1.2156    1.3992    2.1344 H   0  0  0  0  0  0
    2.9847   -0.8308    0.2458 H   0  0  0  0  0  0
    4.9521   -0.5955    4.9861 H   0  0  0  0  0  0
   -0.0113    5.6133    1.5008 O   0  5  0  0  0  0
   -1.1294    3.8566    3.0906 O   0  5  0  0  0  0
  1  2  1  0  0  0
  1  3  1  0  0  0
  1  4  1  0  0  0
  1 15  1  0  0  0
  2  5  1  0  0  0
  3  6  1  0  0  0
  3  7  1  0  0  0
  3 16  1  0  0  0
  4  8  1  0  0  0
  4 17  1  0  0  0
  4 18  1  0  0  0
  5  9  1  0  0  0
  5 10  1  0  0  0
  5  6  1  0  0  0
  6 11  1  0  0  0
  6 19  1  0  0  0
  7 20  1  0  0  0
  8 12  1  0  0  0
  9 13  1  0  0  0
  9 21  1  0  0  0
  9 22  1  0  0  0
 10 23  1  0  0  0
 11 24  1  0  0  0
 12 14  2  0  0  0
 12 26  1  0  0  0
 12 27  1  0  0  0
 13 25  1  0  0  0
M  CHG  2  26  -1  27  -1
M  END
> <i_ionizer_Ion_state_n>
3

> <i_ionizer_Tot_Q>
-2

> <s_ionizer_Ion_centers>
26_27

> <s_ionizer_Ion_types>
OM_OM

> <s_ionizer_Ion_ctrs_in>
14_15

> <r_ionizer_Ionization_penalty>
1.49178e-05

> <r_ionizer_Ionization_penalty_charging>
1.49178e-05

> <r_ionizer_Ionization_penalty_neutral>
0

> <s_st_Chirality_1>
1_R_2_3_4_15

> <s_st_Chirality_2>
3_R_7_6_1_16

> <s_st_Chirality_3>
5_R_2_10_6_9

> <s_st_Chirality_4>
6_S_11_5_3_19

> <i_mmod_Serial_Number-OPLS-2005>
675

> <i_i_glide_lignum>
668

> <r_i_docking_score>
-5.9439

> <r_i_glide_gscore>
-5.9439

> <r_i_glide_lipo>
-0.398394

> <r_i_glide_hbond>
-1.82413

> <r_i_glide_metal>
0

> <r_i_glide_eburp>
-1.8324

> <r_i_glide_evdw>
-17.7101

> <r_i_glide_ecoul>
-11.9526

> <r_i_glide_erotb>
0.9087

> <r_i_glide_esite>
-0.185612

> <r_i_glide_emodel>
-62.6238

> <r_i_glide_energy>
-29.6627

> <r_i_glide_einternal>
5.15997

> <i_i_glide_confnum>
11

> <i_i_glide_posenum>
547

$$$$
C05135
                    3D
 Structure written by MMmdl.
 22 22  0  0  1  0            999 V2000
    2.6234   -0.3332    2.5363 C   0  0  0  0  0  0
    3.2124   -0.2064    1.1648 C   0  0  0  0  0  0
    3.2306   -0.1293    3.7567 C   0  0  0  0  0  0
    1.2901   -0.7072    2.7254 N   0  0  0  0  0  0
    4.7370   -0.0346    1.2031 C   0  0  0  0  0  0
    2.2530   -0.3823    4.7035 N   0  0  0  0  0  0
    1.1400   -0.7155    4.0444 C   0  0  0  0  0  0
    5.3241   -0.3309   -0.0969 N   0  0  0  0  0  0
    6.6214   -0.6025   -0.2946 C   0  0  0  0  0  0
    7.0081   -1.0752   -1.6915 C   0  0  0  0  0  0
    7.4797   -0.4881    0.5794 O   0  0  0  0  0  0
    2.9591   -1.0871    0.5732 H   0  0  0  0  0  0
    2.7634    0.6427    0.6479 H   0  0  0  0  0  0
    4.2372    0.1620    4.0190 H   0  0  0  0  0  0
    4.9898    0.9872    1.4913 H   0  0  0  0  0  0
    5.1708   -0.6979    1.9533 H   0  0  0  0  0  0
    2.3593   -0.3266    5.7063 H   0  0  0  0  0  0
    0.2109   -0.9669    4.5346 H   0  0  0  0  0  0
    4.7063   -0.3330   -0.8955 H   0  0  0  0  0  0
    8.0795   -1.2694   -1.7515 H   0  0  0  0  0  0
    6.4802   -1.9956   -1.9424 H   0  0  0  0  0  0
    6.7567   -0.3173   -2.4338 H   0  0  0  0  0  0
  1  2  1  0  0  0
  1  3  2  0  0  0
  1  4  1  0  0  0
  2  5  1  0  0  0
  2 12  1  0  0  0
  2 13  1  0  0  0
  3  6  1  0  0  0
  3 14  1  0  0  0
  4  7  2  0  0  0
  5  8  1  0  0  0
  5 15  1  0  0  0
  5 16  1  0  0  0
  6  7  1  0  0  0
  6 17  1  0  0  0
  7 18  1  0  0  0
  8  9  1  0  0  0
  8 19  1  0  0  0
  9 10  1  0  0  0
  9 11  2  0  0  0
 10 20  1  0  0  0
 10 21  1  0  0  0
 10 22  1  0  0  0
M  END
> <i_ionizer_Ion_state_n>
0

> <i_ionizer_Tot_Q>
0

> <s_ionizer_Ion_centers>


> <s_ionizer_Ion_types>


> <s_ionizer_Ion_ctrs_in>


> <r_ionizer_Ionization_penalty>
0.41068

> <r_ionizer_Ionization_penalty_charging>
0

> <r_ionizer_Ionization_penalty_neutral>
0.41068

> <i_mmod_Serial_Number-OPLS-2005>
633

> <i_i_glide_lignum>
626

> <r_i_docking_score>
-5.93598

> <r_i_glide_gscore>
-5.93598

> <r_i_glide_lipo>
-0.517297

> <r_i_glide_hbond>
-0.762833

> <r_i_glide_metal>
0

> <r_i_glide_eburp>
-2.5

> <r_i_glide_evdw>
-24.9185

> <r_i_glide_ecoul>
-5.84833

> <r_i_glide_erotb>
1.44389

> <r_i_glide_esite>
-1.02142

> <r_i_glide_emodel>
-40.4336

> <r_i_glide_energy>
-30.7668

> <r_i_glide_einternal>
2.26029

> <i_i_glide_confnum>
1

> <i_i_glide_posenum>
589

$$$$
C06206
                    3D
 Structure written by MMmdl.
 18 18  0  0  1  0            999 V2000
    1.8748    1.1051    2.5600 C   0  0  0  0  0  0
    1.0238    2.1834    3.1342 C   0  0  0  0  0  0
    2.3545    1.1802    1.2308 C   0  0  0  0  0  0
    2.2147   -0.0178    3.3494 C   0  0  0  0  0  0
    0.8990    3.2264    2.3007 O   0  0  0  0  0  0
    0.5002    2.1144    4.2473 O   0  0  0  0  0  0
    3.1587    0.1508    0.7033 C   0  0  0  0  0  0
    3.0189   -1.0464    2.8206 C   0  0  0  0  0  0
   -0.0672    4.6841    2.6782 P   0  0  0  0  0  0
    3.4913   -0.9626    1.4974 C   0  0  0  0  0  0
    0.2562    5.6114    1.4849 O   0  0  0  0  0  0
    2.1126    2.0250    0.6019 H   0  0  0  0  0  0
    1.8614   -0.0998    4.3673 H   0  0  0  0  0  0
    3.5201    0.2169   -0.3122 H   0  0  0  0  0  0
    3.2730   -1.9000    3.4314 H   0  0  0  0  0  0
    4.1078   -1.7513    1.0921 H   0  0  0  0  0  0
   -1.4973    4.1003    2.7001 O   0  5  0  0  0  0
    0.5006    5.1087    4.0515 O   0  5  0  0  0  0
  1  2  1  0  0  0
  1  3  1  0  0  0
  1  4  2  0  0  0
  2  5  1  0  0  0
  2  6  2  0  0  0
  3  7  2  0  0  0
  3 12  1  0  0  0
  4  8  1  0  0  0
  4 13  1  0  0  0
  5  9  1  0  0  0
  7 10  1  0  0  0
  7 14  1  0  0  0
  8 10  2  0  0  0
  8 15  1  0  0  0
  9 11  2  0  0  0
  9 17  1  0  0  0
  9 18  1  0  0  0
 10 16  1  0  0  0
M  CHG  2  17  -1  18  -1
M  END
> <i_ionizer_Ion_state_n>
3

> <i_ionizer_Tot_Q>
-2

> <s_ionizer_Ion_centers>
17_18

> <s_ionizer_Ion_types>
OM_OM

> <s_ionizer_Ion_ctrs_in>
11_12

> <r_ionizer_Ionization_penalty>
1.49178e-05

> <r_ionizer_Ionization_penalty_charging>
1.49178e-05

> <r_ionizer_Ionization_penalty_neutral>
0

> <i_mmod_Serial_Number-OPLS-2005>
867

> <i_i_glide_lignum>
855

> <r_i_docking_score>
-5.91124

> <r_i_glide_gscore>
-5.91124

> <r_i_glide_lipo>
-0.613784

> <r_i_glide_hbond>
-1.01972

> <r_i_glide_metal>
0

> <r_i_glide_eburp>
-2.27206

> <r_i_glide_evdw>
-17.6641

> <r_i_glide_ecoul>
-5.41852

> <r_i_glide_erotb>
0.466322

> <r_i_glide_esite>
-0.517018

> <r_i_glide_emodel>
-56.5626

> <r_i_glide_energy>
-23.0826

> <r_i_glide_einternal>
0.186815

> <i_i_glide_confnum>
1

> <i_i_glide_posenum>
773

$$$$
C00180
                    3D
 Structure written by MMmdl.
 14 14  0  0  1  0            999 V2000
    1.3125    2.1664    3.0699 C   0  0  0  0  0  0
    1.1012    1.2382    4.1164 C   0  0  0  0  0  0
    2.1701    1.8102    2.0027 C   0  0  0  0  0  0
    0.6360    3.5107    3.0916 C   0  0  0  0  0  0
    1.7346   -0.0200    4.0958 C   0  0  0  0  0  0
    2.8031    0.5519    1.9826 C   0  0  0  0  0  0
    1.0292    4.3974    2.3009 O   0  0  0  0  0  0
    2.5858   -0.3639    3.0290 C   0  0  0  0  0  0
    0.4514    1.4837    4.9439 H   0  0  0  0  0  0
    2.3495    2.4995    1.1902 H   0  0  0  0  0  0
    1.5663   -0.7211    4.8998 H   0  0  0  0  0  0
    3.4559    0.2902    1.1630 H   0  0  0  0  0  0
    3.0712   -1.3285    3.0134 H   0  0  0  0  0  0
   -0.3000    3.7027    3.8998 O   0  5  0  0  0  0
  1  2  2  0  0  0
  1  3  1  0  0  0
  1  4  1  0  0  0
  2  5  1  0  0  0
  2  9  1  0  0  0
  3  6  2  0  0  0
  3 10  1  0  0  0
  4  7  2  0  0  0
  4 14  1  0  0  0
  5  8  2  0  0  0
  5 11  1  0  0  0
  6  8  1  0  0  0
  6 12  1  0  0  0
  8 13  1  0  0  0
M  CHG  1  14  -1
M  END
> <i_ionizer_Ion_state_n>
1

> <i_ionizer_Tot_Q>
-1

> <s_ionizer_Ion_centers>
14

> <s_ionizer_Ion_types>
OM

> <s_ionizer_Ion_ctrs_in>
7

> <r_ionizer_Ionization_penalty>
0.00059219

> <r_ionizer_Ionization_penalty_charging>
0.00059219

> <r_ionizer_Ionization_penalty_neutral>
0

> <i_mmod_Serial_Number-OPLS-2005>
126

> <i_i_glide_lignum>
124

> <r_i_docking_score>
-5.906

> <r_i_glide_gscore>
-5.906

> <r_i_glide_lipo>
-0.584592

> <r_i_glide_hbond>
-0.7

> <r_i_glide_metal>
0

> <r_i_glide_eburp>
-2.5

> <r_i_glide_evdw>
-14.2443

> <r_i_glide_ecoul>
-4.76816

> <r_i_glide_erotb>
0

> <r_i_glide_esite>
-0.505049

> <r_i_glide_emodel>
-39.8289

> <r_i_glide_energy>
-19.0125

> <r_i_glide_einternal>
0.305525

> <i_i_glide_confnum>
1

> <i_i_glide_posenum>
755

$$$$
C00534
                    3D
 Structure written by MMmdl.
 25 25  0  0  1  0            999 V2000
    3.7848    1.2733    3.8041 C   0  0  0  0  0  0
    4.8773    1.9584    4.3978 C   0  0  0  0  0  0
    2.8018    2.0299    3.1222 C   0  0  0  0  0  0
    3.6542   -0.2433    3.8707 C   0  0  0  0  0  0
    4.9000    3.3695    4.3000 C   0  0  0  0  0  0
    5.9875    1.2121    5.1333 C   0  0  0  0  0  0
    2.9337    3.4359    3.0831 C   0  0  0  0  0  0
    1.7477    1.4138    2.5051 O   0  0  0  0  0  0
    3.9579    4.0931    3.6628 N   0  0  0  0  0  0
    5.5558    0.5003    6.2742 O   0  0  0  0  0  0
    1.9119    4.3026    2.3714 C   0  0  0  0  0  0
    3.5550   -0.6829    2.8790 H   0  0  0  0  0  0
    4.5586   -0.6781    4.2973 H   0  0  0  0  0  0
    5.6948    3.9495    4.7447 H   0  0  0  0  0  0
    6.4626    0.5130    4.4444 H   0  0  0  0  0  0
    6.7509    1.9164    5.4638 H   0  0  0  0  0  0
    1.7804    0.4702    2.5612 H   0  0  0  0  0  0
    2.4317   -1.6320    4.7473 H   0  0  0  0  0  0
    2.6313   -0.2519    5.6304 H   0  0  0  0  0  0
    5.2950   -0.3691    6.0099 H   0  0  0  0  0  0
    0.9242    4.1629    2.8113 H   0  0  0  0  0  0
    2.1657    5.3611    2.4430 H   0  0  0  0  0  0
    1.8614    4.0391    1.3147 H   0  0  0  0  0  0
    2.5004   -0.6256    4.7007 N   0  3  0  0  0  0
    1.6550   -0.2436    4.3019 H   0  0  0  0  0  0
  1  2  2  0  0  0
  1  3  1  0  0  0
  1  4  1  0  0  0
  2  5  1  0  0  0
  2  6  1  0  0  0
  3  7  2  0  0  0
  3  8  1  0  0  0
  4 12  1  0  0  0
  4 13  1  0  0  0
  4 24  1  0  0  0
  5  9  2  0  0  0
  5 14  1  0  0  0
  6 10  1  0  0  0
  6 15  1  0  0  0
  6 16  1  0  0  0
  7 11  1  0  0  0
  7  9  1  0  0  0
  8 17  1  0  0  0
 10 20  1  0  0  0
 11 21  1  0  0  0
 11 22  1  0  0  0
 11 23  1  0  0  0
 18 24  1  0  0  0
 19 24  1  0  0  0
 24 25  1  0  0  0
M  CHG  1  24   1
M  END
> <i_ionizer_Ion_state_n>
1

> <i_ionizer_Tot_Q>
1

> <s_ionizer_Ion_centers>
24

> <s_ionizer_Ion_types>
N5

> <s_ionizer_Ion_ctrs_in>
9

> <r_ionizer_Ionization_penalty>
0.0186332

> <r_ionizer_Ionization_penalty_charging>
0.000187331

> <r_ionizer_Ionization_penalty_neutral>
0.0184459

> <i_mmod_Serial_Number-OPLS-2005>
273

> <i_i_glide_lignum>
271

> <r_i_docking_score>
-5.90567

> <r_i_glide_gscore>
-5.90567

> <r_i_glide_lipo>
-0.764864

> <r_i_glide_hbond>
-0.832487

> <r_i_glide_metal>
0

> <r_i_glide_eburp>
-2.5

> <r_i_glide_evdw>
-18.6182

> <r_i_glide_ecoul>
-8.33311

> <r_i_glide_erotb>
0.614698

> <r_i_glide_esite>
-0.100253

> <r_i_glide_emodel>
-39.1495

> <r_i_glide_energy>
-26.9513

> <r_i_glide_einternal>
1.18638

> <i_i_glide_confnum>
1

> <i_i_glide_posenum>
959

$$$$
C00491
                    3D
 Structure written by MMmdl.
 26 25  0  0  1  0            999 V2000
    2.8113    0.4864    3.8296 C   0  0  1  0  0  0
    2.7360    1.4750    2.6520 C   0  0  0  0  0  0
    1.7066   -0.5729    3.7458 C   0  0  0  0  0  0
    3.8299    2.9136    2.8213 S   0  0  0  0  0  0
    1.6986   -1.3186    2.7407 O   0  0  0  0  0  0
    2.5723    4.4946    3.1113 S   0  0  0  0  0  0
    1.6504    4.6785    1.5546 C   0  0  0  0  0  0
    0.2402    5.3000    1.6370 C   0  0  1  0  0  0
   -0.6874    4.5365    2.5902 C   0  0  0  0  0  0
   -1.9028    4.5032    2.3002 O   0  0  0  0  0  0
    2.6829    1.0474    4.7572 H   0  0  0  0  0  0
    2.9615    0.9641    1.7171 H   0  0  0  0  0  0
    1.7174    1.8542    2.5561 H   0  0  0  0  0  0
    4.1637   -0.7604    4.7102 H   0  0  0  0  0  0
    4.2660   -0.7160    3.0669 H   0  0  0  0  0  0
    2.2718    5.2774    0.8873 H   0  0  0  0  0  0
    1.5886    3.6908    1.0967 H   0  0  0  0  0  0
   -0.1952    5.3007    0.6377 H   0  0  0  0  0  0
    0.6951    6.7552    2.9860 H   0  0  0  0  0  0
    0.9095    7.2257    1.4145 H   0  0  0  0  0  0
    4.1329   -0.1596    3.8993 N   0  3  0  0  0  0
    4.8537    0.5444    3.9641 H   0  0  0  0  0  0
    0.8953   -0.6299    4.6952 O   0  5  0  0  0  0
    0.3176    6.7112    2.0501 N   0  3  0  0  0  0
   -0.6123    7.1053    2.0489 H   0  0  0  0  0  0
   -0.1701    4.0177    3.6048 O   0  5  0  0  0  0
  1  2  1  0  0  0
  1  3  1  0  0  0
  1 11  1  0  0  0
  1 21  1  0  0  0
  2  4  1  0  0  0
  2 12  1  0  0  0
  2 13  1  0  0  0
  3  5  2  0  0  0
  3 23  1  0  0  0
  4  6  1  0  0  0
  6  7  1  0  0  0
  7  8  1  0  0  0
  7 16  1  0  0  0
  7 17  1  0  0  0
  8  9  1  0  0  0
  8 18  1  0  0  0
  8 24  1  0  0  0
  9 10  2  0  0  0
  9 26  1  0  0  0
 14 21  1  0  0  0
 15 21  1  0  0  0
 19 24  1  0  0  0
 20 24  1  0  0  0
 21 22  1  0  0  0
 24 25  1  0  0  0
M  CHG  4  21   1  23  -1  24   1  26  -1
M  END
> <i_ionizer_Ion_state_n>
15

> <i_ionizer_Tot_Q>
0

> <s_ionizer_Ion_centers>
21_23_24_26

> <s_ionizer_Ion_types>
N5_OM_N5_OM

> <s_ionizer_Ion_ctrs_in>
4_6_12_13

> <r_ionizer_Ionization_penalty>
0.00155904

> <r_ionizer_Ionization_penalty_charging>
0.00155904

> <r_ionizer_Ionization_penalty_neutral>
0

> <s_st_Chirality_1>
1_R_21_2_3_11

> <s_st_Chirality_2>
8_R_24_7_9_18

> <i_mmod_Serial_Number-OPLS-2005>
258

> <i_i_glide_lignum>
256

> <r_i_docking_score>
-5.90101

> <r_i_glide_gscore>
-5.90101

> <r_i_glide_lipo>
-0.258766

> <r_i_glide_hbond>
-2.16826

> <r_i_glide_metal>
0

> <r_i_glide_eburp>
-2.36741

> <r_i_glide_evdw>
-16.6152

> <r_i_glide_ecoul>
-11.3374

> <r_i_glide_erotb>
1.71202

> <r_i_glide_esite>
-0.355633

> <r_i_glide_emodel>
-69.0641

> <r_i_glide_energy>
-27.9526

> <r_i_glide_einternal>
6.0145

> <i_i_glide_confnum>
10

> <i_i_glide_posenum>
631

$$$$
C03912
                    3D
 Structure written by MMmdl.
 15 15  0  0  1  0            999 V2000
    2.4629    0.4447    4.1399 C   0  0  2  0  0  0
    1.5052   -0.7002    3.7800 C   0  0  0  0  0  0
    2.5890    1.5322    3.0532 C   0  0  0  0  0  0
    0.6005   -0.9550    4.6034 O   0  0  0  0  0  0
    4.1025    1.7358    2.8381 C   0  0  0  0  0  0
    4.7071    0.6233    3.6217 C   0  0  0  0  0  0
    2.1744    0.8741    5.1003 H   0  0  0  0  0  0
    2.1237    1.2194    2.1165 H   0  0  0  0  0  0
    2.1014    2.4582    3.3594 H   0  0  0  0  0  0
    4.3800    1.6589    1.7864 H   0  0  0  0  0  0
    4.4476    2.6935    3.2289 H   0  0  0  0  0  0
    5.7563    0.3543    3.6429 H   0  0  0  0  0  0
    3.8338   -0.0273    4.3006 N   0  3  0  0  0  0
    4.0269   -0.8880    4.8046 H   0  0  0  0  0  0
    1.6995   -1.3092    2.7037 O   0  5  0  0  0  0
  1  2  1  0  0  0
  1  3  1  0  0  0
  1  7  1  0  0  0
  1 13  1  0  0  0
  2  4  2  0  0  0
  2 15  1  0  0  0
  3  5  1  0  0  0
  3  8  1  0  0  0
  3  9  1  0  0  0
  5  6  1  0  0  0
  5 10  1  0  0  0
  5 11  1  0  0  0
  6 12  1  0  0  0
  6 13  2  0  0  0
 13 14  1  0  0  0
M  CHG  2  13   1  15  -1
M  END
> <i_ionizer_Ion_state_n>
3

> <i_ionizer_Tot_Q>
0

> <s_ionizer_Ion_centers>
13_15

> <s_ionizer_Ion_types>
N4_OM

> <s_ionizer_Ion_ctrs_in>
4_5

> <r_ionizer_Ionization_penalty>
0.000610925

> <r_ionizer_Ionization_penalty_charging>
0.000610925

> <r_ionizer_Ionization_penalty_neutral>
0

> <s_st_Chirality_1>
1_S_13_2_3_7

> <s_st_EZ_1>
5_6_13_1_Z

> <i_mmod_Serial_Number-OPLS-2005>
572

> <i_i_glide_lignum>
566

> <r_i_docking_score>
-5.89531

> <r_i_glide_gscore>
-5.89531

> <r_i_glide_lipo>
-0.261256

> <r_i_glide_hbond>
-0.78805

> <r_i_glide_metal>
0

> <r_i_glide_eburp>
-2.5

> <r_i_glide_evdw>
-12.2071

> <r_i_glide_ecoul>
-8.89585

> <r_i_glide_erotb>
0

> <r_i_glide_esite>
-0.479849

> <r_i_glide_emodel>
-37.7079

> <r_i_glide_energy>
-21.103

> <r_i_glide_einternal>
0.506736

> <i_i_glide_confnum>
1

> <i_i_glide_posenum>
668

$$$$
C00627
                    3D
 Structure written by MMmdl.
 26 26  0  0  1  0            999 V2000
    2.8435    2.8086    3.0716 C   0  0  0  0  0  0
    2.7365    1.3946    3.1195 C   0  0  0  0  0  0
    3.9459    3.4157    3.7112 C   0  0  0  0  0  0
    1.8241    3.6689    2.3324 C   0  0  0  0  0  0
    3.7375    0.6694    3.8140 C   0  0  0  0  0  0
    1.5785    0.6734    2.4357 C   0  0  0  0  0  0
    4.9022    2.7286    4.3687 N   0  0  0  0  0  0
    1.3891    4.8039    3.0611 O   0  0  0  0  0  0
    4.7942    1.3858    4.4207 C   0  0  0  0  0  0
    3.6981   -0.6956    3.8999 O   0  0  0  0  0  0
    0.8990   -0.2105    3.3027 O   0  0  0  0  0  0
   -0.2843    5.3568    2.7258 P   0  0  0  0  0  0
    5.8957    0.6683    5.1784 C   0  0  0  0  0  0
   -0.4229    6.5566    3.6895 O   0  0  0  0  0  0
    4.0766    4.4875    3.6943 H   0  0  0  0  0  0
    2.2887    4.0195    1.4099 H   0  0  0  0  0  0
    0.9662    3.0693    2.0317 H   0  0  0  0  0  0
    0.8497    1.3766    2.0350 H   0  0  0  0  0  0
    1.9512    0.1176    1.5755 H   0  0  0  0  0  0
    4.2587   -1.0434    4.5763 H   0  0  0  0  0  0
    1.5419   -0.7646    3.7200 H   0  0  0  0  0  0
    6.6253    1.3704    5.5841 H   0  0  0  0  0  0
    5.4759    0.1012    6.0095 H   0  0  0  0  0  0
    6.4223   -0.0213    4.5183 H   0  0  0  0  0  0
   -0.2370    5.6984    1.2195 O   0  5  0  0  0  0
   -1.1003    4.0997    3.0997 O   0  5  0  0  0  0
  1  2  1  0  0  0
  1  3  2  0  0  0
  1  4  1  0  0  0
  2  5  2  0  0  0
  2  6  1  0  0  0
  3  7  1  0  0  0
  3 15  1  0  0  0
  4  8  1  0  0  0
  4 16  1  0  0  0
  4 17  1  0  0  0
  5  9  1  0  0  0
  5 10  1  0  0  0
  6 11  1  0  0  0
  6 18  1  0  0  0
  6 19  1  0  0  0
  7  9  2  0  0  0
  8 12  1  0  0  0
  9 13  1  0  0  0
 10 20  1  0  0  0
 11 21  1  0  0  0
 12 14  2  0  0  0
 12 25  1  0  0  0
 12 26  1  0  0  0
 13 22  1  0  0  0
 13 23  1  0  0  0
 13 24  1  0  0  0
M  CHG  2  25  -1  26  -1
M  END
> <i_ionizer_Ion_state_n>
6

> <i_ionizer_Tot_Q>
-2

> <s_ionizer_Ion_centers>
25_26

> <s_ionizer_Ion_types>
OM_OM

> <s_ionizer_Ion_ctrs_in>
14_15

> <r_ionizer_Ionization_penalty>
0.0184608

> <r_ionizer_Ionization_penalty_charging>
1.49178e-05

> <r_ionizer_Ionization_penalty_neutral>
0.0184459

> <i_mmod_Serial_Number-OPLS-2005>
297

> <i_i_glide_lignum>
295

> <r_i_docking_score>
-5.89443

> <r_i_glide_gscore>
-5.89443

> <r_i_glide_lipo>
-0.743134

> <r_i_glide_hbond>
-1.46954

> <r_i_glide_metal>
0

> <r_i_glide_eburp>
-1.91556

> <r_i_glide_evdw>
-23.3411

> <r_i_glide_ecoul>
-6.57035

> <r_i_glide_erotb>
0.979071

> <r_i_glide_esite>
-0.220937

> <r_i_glide_emodel>
-62.23

> <r_i_glide_energy>
-29.9115

> <r_i_glide_einternal>
2.73187

> <i_i_glide_confnum>
13

> <i_i_glide_posenum>
643

$$$$
C00499
                    3D
 Structure written by MMmdl.
 19 18  0  0  1  0            999 V2000
    1.6906    2.4517    2.6901 C   0  0  0  0  0  0
    1.1603    1.3180    1.9379 N   0  0  0  0  0  0
    2.6100    3.2311    1.8656 N   0  0  0  0  0  0
    0.5318    3.3468    3.1363 C   0  0  0  0  0  0
    0.7885    0.1388    2.4539 C   0  0  0  0  0  0
    3.4412    4.1857    2.3049 C   0  0  0  0  0  0
    0.0983    4.1735    2.3020 O   0  0  0  0  0  0
    1.2520   -0.0426    3.6900 N   0  0  0  0  0  0
    0.0992   -0.6977    1.8754 O   0  0  0  0  0  0
    4.0990    4.7819    1.3112 N   0  0  0  0  0  0
    3.5983    4.4957    3.4833 O   0  0  0  0  0  0
    2.1978    2.1015    3.5921 H   0  0  0  0  0  0
    1.0088    1.4817    0.9540 H   0  0  0  0  0  0
    2.5512    3.0643    0.8724 H   0  0  0  0  0  0
    1.0316   -0.9005    4.1736 H   0  0  0  0  0  0
    1.8186    0.6631    4.1352 H   0  0  0  0  0  0
    4.7523    5.5191    1.5305 H   0  0  0  0  0  0
    3.9440    4.5056    0.3536 H   0  0  0  0  0  0
    0.0982    3.1926    4.2987 O   0  5  0  0  0  0
  1  2  1  0  0  0
  1  3  1  0  0  0
  1  4  1  0  0  0
  1 12  1  0  0  0
  2  5  1  0  0  0
  2 13  1  0  0  0
  3  6  1  0  0  0
  3 14  1  0  0  0
  4  7  2  0  0  0
  4 19  1  0  0  0
  5  8  1  0  0  0
  5  9  2  0  0  0
  6 10  1  0  0  0
  6 11  2  0  0  0
  8 15  1  0  0  0
  8 16  1  0  0  0
 10 17  1  0  0  0
 10 18  1  0  0  0
M  CHG  1  19  -1
M  END
> <i_ionizer_Ion_state_n>
1

> <i_ionizer_Tot_Q>
-1

> <s_ionizer_Ion_centers>
19

> <s_ionizer_Ion_types>
OM

> <s_ionizer_Ion_ctrs_in>
7

> <r_ionizer_Ionization_penalty>
0.00059219

> <r_ionizer_Ionization_penalty_charging>
0.00059219

> <r_ionizer_Ionization_penalty_neutral>
0

> <i_mmod_Serial_Number-OPLS-2005>
260

> <i_i_glide_lignum>
258

> <r_i_docking_score>
-5.89334

> <r_i_glide_gscore>
-5.89334

> <r_i_glide_lipo>
0

> <r_i_glide_hbond>
-1.70766

> <r_i_glide_metal>
0

> <r_i_glide_eburp>
-2.46118

> <r_i_glide_evdw>
-18.0659

> <r_i_glide_ecoul>
-10.9062

> <r_i_glide_erotb>
1.16228

> <r_i_glide_esite>
-0.350893

> <r_i_glide_emodel>
-54.2466

> <r_i_glide_energy>
-28.9721

> <r_i_glide_einternal>
4.83714

> <i_i_glide_confnum>
1

> <i_i_glide_posenum>
263

$$$$
C00386
                    3D
 Structure written by MMmdl.
 30 30  0  0  1  0            999 V2000
    1.4624    3.4053    2.2612 C   0  0  2  0  0  0
    2.8223    3.2075    2.9689 C   0  0  0  0  0  0
    1.1685    4.8368    2.2407 N   0  0  0  0  0  0
    0.3593    2.6667    3.0425 C   0  0  0  0  0  0
    3.1939    1.7714    3.2532 C   0  0  0  0  0  0
   -0.0557    5.3825    2.3057 C   0  0  0  0  0  0
   -0.2642    3.3102    3.9173 O   0  0  0  0  0  0
    4.1315    0.9389    2.6813 C   0  0  0  0  0  0
    2.5954    1.0265    4.2548 N   0  0  0  0  0  0
   -0.1198    6.9116    2.2749 C   0  0  0  0  0  0
   -1.0903    4.7207    2.3868 O   0  0  0  0  0  0
    4.1043   -0.3086    3.3104 N   0  0  0  0  0  0
    3.1661   -0.1810    4.2416 C   0  0  0  0  0  0
   -1.4777    7.4298    1.7709 C   0  0  0  0  0  0
    1.5179    3.0185    1.2417 H   0  0  0  0  0  0
    3.6170    3.6350    2.3562 H   0  0  0  0  0  0
    2.8420    3.7571    3.9116 H   0  0  0  0  0  0
    1.9673    5.4531    2.2461 H   0  0  0  0  0  0
    4.8201    1.1421    1.8744 H   0  0  0  0  0  0
    1.8710    1.3412    4.8843 H   0  0  0  0  0  0
    0.0719    7.2981    3.2773 H   0  0  0  0  0  0
    0.6853    7.2773    1.6365 H   0  0  0  0  0  0
    2.8934   -0.9745    4.9219 H   0  0  0  0  0  0
   -1.6480    7.1229    0.7380 H   0  0  0  0  0  0
   -2.2907    7.0145    2.3684 H   0  0  0  0  0  0
   -2.4514    9.2073    1.5027 H   0  0  0  0  0  0
   -1.4294    9.1995    2.7961 H   0  0  0  0  0  0
    0.1626    1.4671    2.7501 O   0  5  0  0  0  0
   -1.5502    8.8992    1.8393 N   0  3  0  0  0  0
   -0.8226    9.3011    1.2655 H   0  0  0  0  0  0
  1  2  1  0  0  0
  1  3  1  0  0  0
  1  4  1  0  0  0
  1 15  1  0  0  0
  2  5  1  0  0  0
  2 16  1  0  0  0
  2 17  1  0  0  0
  3  6  1  0  0  0
  3 18  1  0  0  0
  4  7  2  0  0  0
  4 28  1  0  0  0
  5  8  2  0  0  0
  5  9  1  0  0  0
  6 10  1  0  0  0
  6 11  2  0  0  0
  8 12  1  0  0  0
  8 19  1  0  0  0
  9 13  1  0  0  0
  9 20  1  0  0  0
 10 14  1  0  0  0
 10 21  1  0  0  0
 10 22  1  0  0  0
 12 13  2  0  0  0
 13 23  1  0  0  0
 14 24  1  0  0  0
 14 25  1  0  0  0
 14 29  1  0  0  0
 26 29  1  0  0  0
 27 29  1  0  0  0
 29 30  1  0  0  0
M  CHG  2  28  -1  29   1
M  END
> <i_ionizer_Ion_state_n>
5

> <i_ionizer_Tot_Q>
0

> <s_ionizer_Ion_centers>
28_29

> <s_ionizer_Ion_types>
OM_N5

> <s_ionizer_Ion_ctrs_in>
7_16

> <r_ionizer_Ionization_penalty>
0.411459

> <r_ionizer_Ionization_penalty_charging>
0.000779521

> <r_ionizer_Ionization_penalty_neutral>
0.41068

> <s_st_Chirality_1>
1_S_3_4_2_15

> <i_mmod_Serial_Number-OPLS-2005>
219

> <i_i_glide_lignum>
217

> <r_i_docking_score>
-5.8915

> <r_i_glide_gscore>
-5.8915

> <r_i_glide_lipo>
-0.434239

> <r_i_glide_hbond>
-1.82353

> <r_i_glide_metal>
0

> <r_i_glide_eburp>
-2.07396

> <r_i_glide_evdw>
-20.3528

> <r_i_glide_ecoul>
-16.0435

> <r_i_glide_erotb>
1.51747

> <r_i_glide_esite>
0.155323

> <r_i_glide_emodel>
-86.1336

> <r_i_glide_energy>
-36.3963

> <r_i_glide_einternal>
4.7765

> <i_i_glide_confnum>
8

> <i_i_glide_posenum>
547

$$$$
C03373
                    3D
 Structure written by MMmdl.
 31 32  0  0  1  0            999 V2000
    2.8055    0.2844    1.6578 C   0  0  2  0  0  0
    4.0548    0.7170    0.9478 N   0  0  0  0  0  0
    1.7760    1.2241    1.4873 O   0  0  0  0  0  0
    3.0714    0.2032    3.1562 C   0  0  1  0  0  0
    4.9803   -0.0993    0.2999 C   0  0  0  0  0  0
    4.5153    1.9652    0.7603 C   0  0  0  0  0  0
    1.1721    1.5786    2.7354 C   0  0  1  0  0  0
    1.7481    0.6014    3.7713 C   0  0  1  0  0  0
    3.4588   -1.0997    3.5483 O   0  0  0  0  0  0
    5.9548    0.7206   -0.2208 C   0  0  0  0  0  0
    4.8380   -1.4806    0.2536 N   0  0  0  0  0  0
    5.6499    2.0455    0.0754 N   0  0  0  0  0  0
    1.3913    3.0512    3.1444 C   0  0  0  0  0  0
    0.9000   -0.5114    3.9920 O   0  0  0  0  0  0
    1.0244    3.9874    2.1427 O   0  0  0  0  0  0
   -0.3385    5.0974    2.5036 P   0  0  0  0  0  0
   -1.5013    4.1008    2.7000 O   0  0  0  0  0  0
    2.5579   -0.6761    1.2042 H   0  0  0  0  0  0
    3.8661    0.8886    3.4532 H   0  0  0  0  0  0
    4.0071    2.8446    1.1244 H   0  0  0  0  0  0
    0.1056    1.3719    2.6355 H   0  0  0  0  0  0
    1.9208    1.1221    4.7140 H   0  0  0  0  0  0
    3.7430   -1.0445    4.4498 H   0  0  0  0  0  0
    6.8381    0.4634   -0.7867 H   0  0  0  0  0  0
    5.5019   -2.0843   -0.2099 H   0  0  0  0  0  0
    4.0679   -1.9694    0.6886 H   0  0  0  0  0  0
    0.9324    3.2824    4.1049 H   0  0  0  0  0  0
    2.4594    3.2085    3.2948 H   0  0  0  0  0  0
    1.3202   -1.0963    4.6198 H   0  0  0  0  0  0
    0.1336    5.8321    3.7780 O   0  5  0  0  0  0
   -0.3907    5.9484    1.2165 O   0  5  0  0  0  0
  1  2  1  0  0  0
  1  3  1  0  0  0
  1  4  1  0  0  0
  1 18  1  0  0  0
  2  5  1  0  0  0
  2  6  1  0  0  0
  3  7  1  0  0  0
  4  8  1  0  0  0
  4  9  1  0  0  0
  4 19  1  0  0  0
  5 10  2  0  0  0
  5 11  1  0  0  0
  6 12  2  0  0  0
  6 20  1  0  0  0
  7 13  1  0  0  0
  7  8  1  0  0  0
  7 21  1  0  0  0
  8 14  1  0  0  0
  8 22  1  0  0  0
  9 23  1  0  0  0
 10 12  1  0  0  0
 10 24  1  0  0  0
 11 25  1  0  0  0
 11 26  1  0  0  0
 13 15  1  0  0  0
 13 27  1  0  0  0
 13 28  1  0  0  0
 14 29  1  0  0  0
 15 16  1  0  0  0
 16 17  2  0  0  0
 16 30  1  0  0  0
 16 31  1  0  0  0
M  CHG  2  30  -1  31  -1
M  END
> <i_ionizer_Ion_state_n>
6

> <i_ionizer_Tot_Q>
-2

> <s_ionizer_Ion_centers>
30_31

> <s_ionizer_Ion_types>
OM_OM

> <s_ionizer_Ion_ctrs_in>
17_18

> <r_ionizer_Ionization_penalty>
0.410695

> <r_ionizer_Ionization_penalty_charging>
1.49178e-05

> <r_ionizer_Ionization_penalty_neutral>
0.41068

> <s_st_Chirality_1>
1_R_3_2_4_18

> <s_st_Chirality_2>
4_R_9_1_8_19

> <s_st_Chirality_3>
7_R_3_8_13_21

> <s_st_Chirality_4>
8_R_14_4_7_22

> <i_mmod_Serial_Number-OPLS-2005>
538

> <i_i_glide_lignum>
532

> <r_i_docking_score>
-5.8844

> <r_i_glide_gscore>
-5.8844

> <r_i_glide_lipo>
-0.608435

> <r_i_glide_hbond>
-1.08509

> <r_i_glide_metal>
0

> <r_i_glide_eburp>
-1.56686

> <r_i_glide_evdw>
-26.0346

> <r_i_glide_ecoul>
-7.92242

> <r_i_glide_erotb>
0.728732

> <r_i_glide_esite>
-0.477735

> <r_i_glide_emodel>
-70.4544

> <r_i_glide_energy>
-33.957

> <r_i_glide_einternal>
4.72121

> <i_i_glide_confnum>
34

> <i_i_glide_posenum>
342

$$$$
C00683
                    3D
 Structure written by MMmdl.
 90 92  0  0  1  0            999 V2000
   -1.5013   13.4306    8.5084 N   0  0  0  0  0  0
   -0.8616   14.2953    7.4607 C   0  0  1  0  0  0
   -1.3669   12.0603    8.5838 C   0  0  0  0  0  0
   -2.2700   13.7673    9.6089 C   0  0  0  0  0  0
   -0.6713   13.5734    6.1202 C   0  0  1  0  0  0
   -1.7160   15.3801    7.2308 O   0  0  0  0  0  0
   -2.0965   11.6561    9.7342 C   0  0  0  0  0  0
   -0.6821   11.2310    7.7418 N   0  0  0  0  0  0
   -2.6558   12.7642   10.3520 N   0  0  0  0  0  0
   -0.9272   14.7083    5.1484 C   0  0  1  0  0  0
    0.6354   13.0871    5.9011 O   0  0  0  0  0  0
   -2.0593   15.4791    5.8468 C   0  0  1  0  0  0
   -2.1010   10.2650   10.0054 C   0  0  0  0  0  0
   -0.7752    9.9541    8.1233 C   0  0  0  0  0  0
    0.2585   15.5021    5.1002 O   0  0  0  0  0  0
   -3.4680   14.8805    5.6779 C   0  0  0  0  0  0
   -1.4255    9.4396    9.1724 N   0  0  0  0  0  0
   -2.7422    9.7268   11.0511 N   0  0  0  0  0  0
    0.2540   16.9578    4.0498 P   0  0  0  0  0  0
   -4.3577   15.2948    6.6935 O   0  0  0  0  0  0
   -0.0510   16.3829    2.6491 O   0  0  0  0  0  0
   -5.6475   14.2934    7.1683 P   0  0  0  0  0  0
   -4.8728   12.8130    7.4930 O   0  0  0  0  0  0
   -6.1899   14.8149    8.4442 O   0  0  0  0  0  0
   -5.3528   11.2437    7.9420 P   0  0  0  0  0  0
   -4.2407   10.2193    7.1538 O   0  0  0  0  0  0
   -5.1270   11.1023    9.3984 O   0  0  0  0  0  0
   -3.8451   10.4297    5.8086 C   0  0  0  0  0  0
   -3.3137    9.1322    5.1466 C   0  0  0  0  0  0
   -3.0197    9.4374    3.6380 C   0  0  2  0  0  0
   -2.0505    8.6605    5.9049 C   0  0  0  0  0  0
   -4.3955    8.0337    5.2637 C   0  0  0  0  0  0
   -2.3272    8.3058    2.8552 C   0  0  0  0  0  0
   -2.2453   10.6164    3.5045 O   0  0  0  0  0  0
   -2.2122    8.4831    1.5306 N   0  0  0  0  0  0
   -1.8864    7.3126    3.4349 O   0  0  0  0  0  0
   -1.5756    7.5354    0.6259 C   0  0  0  0  0  0
   -0.1045    7.9184    0.3881 C   0  0  0  0  0  0
    0.7613    6.7308   -0.0446 C   0  0  0  0  0  0
    1.8041    6.4375    0.7452 N   0  0  0  0  0  0
    0.4959    6.0995   -1.0677 O   0  0  0  0  0  0
    2.6831    5.2922    0.5523 C   0  0  0  0  0  0
    2.5426    4.2991    1.7151 C   0  0  0  0  0  0
    3.5601    2.8105    1.4740 S   0  0  0  0  0  0
    3.3501    2.0160    3.0918 C   0  0  0  0  0  0
    2.3336    0.8663    3.1315 C   0  0  2  0  0  0
    3.9854    2.3546    4.0914 O   0  0  0  0  0  0
    0.9138    1.4600    3.0905 C   0  0  0  0  0  0
    2.5504   -0.0534    4.3527 C   0  0  0  0  0  0
    0.6456    2.4178    3.8505 O   0  0  0  0  0  0
    0.0754   14.6499    7.8918 H   0  0  0  0  0  0
   -2.5541   14.7770    9.8643 H   0  0  0  0  0  0
   -1.4040   12.7827    5.9814 H   0  0  0  0  0  0
   -1.1862   14.3542    4.1506 H   0  0  0  0  0  0
    1.0921   13.1844    6.7265 H   0  0  0  0  0  0
   -2.0939   16.5222    5.5375 H   0  0  0  0  0  0
   -0.2552    9.2418    7.4998 H   0  0  0  0  0  0
   -3.9040   15.1741    4.7265 H   0  0  0  0  0  0
   -3.4021   13.7922    5.6622 H   0  0  0  0  0  0
   -2.7126    8.7292   11.2009 H   0  0  0  0  0  0
   -3.2488   10.3265   11.6866 H   0  0  0  0  0  0
   -4.6802   10.8341    5.2356 H   0  0  0  0  0  0
   -3.0811   11.2044    5.8073 H   0  0  0  0  0  0
   -3.9708    9.6466    3.1449 H   0  0  0  0  0  0
   -1.6786    7.7079    5.5294 H   0  0  0  0  0  0
   -1.2400    9.3846    5.8266 H   0  0  0  0  0  0
   -2.2554    8.5216    6.9668 H   0  0  0  0  0  0
   -4.0643    7.0824    4.8473 H   0  0  0  0  0  0
   -4.6564    7.8409    6.3045 H   0  0  0  0  0  0
   -5.3104    8.3215    4.7449 H   0  0  0  0  0  0
   -2.2667   10.8928    2.6015 H   0  0  0  0  0  0
   -2.5981    9.3238    1.1258 H   0  0  0  0  0  0
   -1.6411    6.5327    1.0524 H   0  0  0  0  0  0
   -2.1235    7.5221   -0.3181 H   0  0  0  0  0  0
   -0.0389    8.6895   -0.3803 H   0  0  0  0  0  0
    0.3119    8.3472    1.3011 H   0  0  0  0  0  0
    2.0018    7.0466    1.5258 H   0  0  0  0  0  0
    2.4348    4.7984   -0.3886 H   0  0  0  0  0  0
    3.7120    5.6439    0.4677 H   0  0  0  0  0  0
    2.7836    4.7676    2.6700 H   0  0  0  0  0  0
    1.5041    3.9745    1.7865 H   0  0  0  0  0  0
    2.4622    0.2649    2.2307 H   0  0  0  0  0  0
    1.8281   -0.8705    4.3615 H   0  0  0  0  0  0
    2.4509    0.4858    5.2961 H   0  0  0  0  0  0
    3.5448   -0.5003    4.3326 H   0  0  0  0  0  0
   -0.8642   17.8051    4.6962 O   0  5  0  0  0  0
    1.6921   17.4813    4.2588 O   0  5  0  0  0  0
   -6.5518   14.1173    6.0096 O   0  5  0  0  0  0
   -6.7047   10.9892    7.3932 O   0  5  0  0  0  0
    0.1034    0.9307    2.2973 O   0  5  0  0  0  0
  1  2  1  0  0  0
  1  3  1  0  0  0
  1  4  1  0  0  0
  2  5  1  0  0  0
  2  6  1  0  0  0
  2 51  1  0  0  0
  3  7  2  0  0  0
  3  8  1  0  0  0
  4  9  2  0  0  0
  4 52  1  0  0  0
  5 10  1  0  0  0
  5 11  1  0  0  0
  5 53  1  0  0  0
  6 12  1  0  0  0
  7 13  1  0  0  0
  7  9  1  0  0  0
  8 14  2  0  0  0
 10 15  1  0  0  0
 10 12  1  0  0  0
 10 54  1  0  0  0
 11 55  1  0  0  0
 12 16  1  0  0  0
 12 56  1  0  0  0
 13 17  2  0  0  0
 13 18  1  0  0  0
 14 17  1  0  0  0
 14 57  1  0  0  0
 15 19  1  0  0  0
 16 20  1  0  0  0
 16 58  1  0  0  0
 16 59  1  0  0  0
 18 60  1  0  0  0
 18 61  1  0  0  0
 19 21  2  0  0  0
 19 86  1  0  0  0
 19 87  1  0  0  0
 20 22  1  0  0  0
 22 23  1  0  0  0
 22 24  2  0  0  0
 22 88  1  0  0  0
 23 25  1  0  0  0
 25 26  1  0  0  0
 25 27  2  0  0  0
 25 89  1  0  0  0
 26 28  1  0  0  0
 28 29  1  0  0  0
 28 62  1  0  0  0
 28 63  1  0  0  0
 29 30  1  0  0  0
 29 31  1  0  0  0
 29 32  1  0  0  0
 30 33  1  0  0  0
 30 34  1  0  0  0
 30 64  1  0  0  0
 31 65  1  0  0  0
 31 66  1  0  0  0
 31 67  1  0  0  0
 32 68  1  0  0  0
 32 69  1  0  0  0
 32 70  1  0  0  0
 33 35  1  0  0  0
 33 36  2  0  0  0
 34 71  1  0  0  0
 35 37  1  0  0  0
 35 72  1  0  0  0
 37 38  1  0  0  0
 37 73  1  0  0  0
 37 74  1  0  0  0
 38 39  1  0  0  0
 38 75  1  0  0  0
 38 76  1  0  0  0
 39 40  1  0  0  0
 39 41  2  0  0  0
 40 42  1  0  0  0
 40 77  1  0  0  0
 42 43  1  0  0  0
 42 78  1  0  0  0
 42 79  1  0  0  0
 43 44  1  0  0  0
 43 80  1  0  0  0
 43 81  1  0  0  0
 44 45  1  0  0  0
 45 46  1  0  0  0
 45 47  2  0  0  0
 46 48  1  0  0  0
 46 49  1  0  0  0
 46 82  1  0  0  0
 48 50  2  0  0  0
 48 90  1  0  0  0
 49 83  1  0  0  0
 49 84  1  0  0  0
 49 85  1  0  0  0
M  CHG  5  86  -1  87  -1  88  -1  89  -1  90  -1
M  END
> <i_ionizer_Ion_state_n>
62

> <i_ionizer_Tot_Q>
-5

> <s_ionizer_Ion_centers>
86_87_88_89_90

> <s_ionizer_Ion_types>
OM_OM_OM_OM_OM

> <s_ionizer_Ion_ctrs_in>
21_22_26_30_54

> <r_ionizer_Ionization_penalty>
0.000640761

> <r_ionizer_Ionization_penalty_charging>
0.000622025

> <r_ionizer_Ionization_penalty_neutral>
1.87357e-05

> <s_st_Chirality_1>
2_R_6_1_5_51

> <s_st_Chirality_2>
5_R_11_2_10_53

> <s_st_Chirality_3>
10_R_15_5_12_54

> <s_st_Chirality_4>
12_R_6_10_16_56

> <s_st_Chirality_5>
46_S_45_48_49_82

> <s_st_Chirality_6>
30_R_34_33_29_64

> <i_mmod_Serial_Number-OPLS-2005>
319

> <i_i_glide_lignum>
317

> <r_i_docking_score>
-5.8842

> <r_i_glide_gscore>
-5.8842

> <r_i_glide_lipo>
-0.937079

> <r_i_glide_hbond>
-2.33339

> <r_i_glide_metal>
0

> <r_i_glide_eburp>
0.33339

> <r_i_glide_evdw>
-43.9177

> <r_i_glide_ecoul>
-8.2487

> <r_i_glide_erotb>
0.497358

> <r_i_glide_esite>
0.893811

> <r_i_glide_emodel>
-89.3787

> <r_i_glide_energy>
-52.1664

> <r_i_glide_einternal>
14.4654

> <i_i_glide_confnum>
1113

> <i_i_glide_posenum>
859

$$$$
C04281
                    3D
 Structure written by MMmdl.
 16 16  0  0  1  0            999 V2000
    5.2166   -0.2774    0.8422 C   0  0  2  0  0  0
    4.9146    0.1504    2.2919 C   0  0  0  0  0  0
    5.9645    0.7764    0.0149 C   0  0  0  0  0  0
    3.4585   -0.2943    2.5482 C   0  0  2  0  0  0
    2.9476   -0.5394    1.1703 C   0  0  0  0  0  0
    7.1996    0.6267   -0.1008 O   0  0  0  0  0  0
    2.7289    0.7022    3.2322 O   0  0  0  0  0  0
    5.7586   -1.2236    0.8088 H   0  0  0  0  0  0
    5.6076   -0.3000    3.0032 H   0  0  0  0  0  0
    5.0046    1.2337    2.3994 H   0  0  0  0  0  0
    3.4258   -1.2278    3.1112 H   0  0  0  0  0  0
    1.9134   -0.6929    0.8869 H   0  0  0  0  0  0
    3.0872    0.8005    4.1011 H   0  0  0  0  0  0
    3.8903   -0.5489    0.2992 N   0  3  0  0  0  0
    3.7420   -0.5781   -0.7055 H   0  0  0  0  0  0
    5.2928    1.6990   -0.4998 O   0  5  0  0  0  0
  1  2  1  0  0  0
  1  3  1  0  0  0
  1  8  1  0  0  0
  1 14  1  0  0  0
  2  4  1  0  0  0
  2  9  1  0  0  0
  2 10  1  0  0  0
  3  6  2  0  0  0
  3 16  1  0  0  0
  4  7  1  0  0  0
  4  5  1  0  0  0
  4 11  1  0  0  0
  5 12  1  0  0  0
  5 14  2  0  0  0
  7 13  1  0  0  0
 14 15  1  0  0  0
M  CHG  2  14   1  16  -1
M  END
> <i_ionizer_Ion_state_n>
3

> <i_ionizer_Tot_Q>
0

> <s_ionizer_Ion_centers>
14_16

> <s_ionizer_Ion_types>
N4_OM

> <s_ionizer_Ion_ctrs_in>
3_7

> <r_ionizer_Ionization_penalty>
0.000610925

> <r_ionizer_Ionization_penalty_charging>
0.000610925

> <r_ionizer_Ionization_penalty_neutral>
0

> <s_st_Chirality_1>
1_R_14_3_2_8

> <s_st_Chirality_2>
4_R_7_5_2_11

> <s_st_EZ_1>
4_5_14_1_Z

> <i_mmod_Serial_Number-OPLS-2005>
587

> <i_i_glide_lignum>
581

> <r_i_docking_score>
-5.87822

> <r_i_glide_gscore>
-5.87822

> <r_i_glide_lipo>
-0.310988

> <r_i_glide_hbond>
-1.04524

> <r_i_glide_metal>
0

> <r_i_glide_eburp>
-2.5

> <r_i_glide_evdw>
-10.77

> <r_i_glide_ecoul>
-8.86459

> <r_i_glide_erotb>
0

> <r_i_glide_esite>
-0.273936

> <r_i_glide_emodel>
-38.8726

> <r_i_glide_energy>
-19.6345

> <r_i_glide_einternal>
0.753293

> <i_i_glide_confnum>
1

> <i_i_glide_posenum>
337

$$$$
C00020
                    3D
 Structure written by MMmdl.
 35 37  0  0  1  0            999 V2000
    1.8398    4.7748    2.2450 N   0  0  0  0  0  0
    1.1079    5.6930    1.5261 C   0  0  0  0  0  0
    3.3075    4.5282    2.1024 C   0  0  2  0  0  0
    0.9300    4.1753    3.0916 C   0  0  0  0  0  0
   -0.2272    5.5818    2.0002 C   0  0  0  0  0  0
    1.5471    6.5484    0.5574 N   0  0  0  0  0  0
    3.4717    3.2991    1.4558 O   0  0  0  0  0  0
    3.9371    4.4056    3.4934 C   0  0  1  0  0  0
   -0.2984    4.6101    2.9897 N   0  0  0  0  0  0
   -1.1692    6.4491    1.3923 C   0  0  0  0  0  0
    0.5506    7.2998    0.0799 C   0  0  0  0  0  0
    4.0652    2.3362    2.3276 C   0  0  1  0  0  0
    3.8665    2.9063    3.7342 C   0  0  1  0  0  0
    5.2643    4.8966    3.4982 O   0  0  0  0  0  0
   -0.7403    7.2990    0.4301 N   0  0  0  0  0  0
   -2.4663    6.4689    1.7256 N   0  0  0  0  0  0
    3.4426    0.9546    2.0655 C   0  0  0  0  0  0
    4.8355    2.4742    4.6688 O   0  0  0  0  0  0
    2.0367    1.0556    1.9148 O   0  0  0  0  0  0
    1.0718   -0.1822    2.7771 P   0  0  0  0  0  0
    0.9138    0.4530    4.1761 O   0  0  0  0  0  0
    3.6737    5.3645    1.5053 H   0  0  0  0  0  0
    1.2037    3.4007    3.7933 H   0  0  0  0  0  0
    3.3668    4.9646    4.2368 H   0  0  0  0  0  0
    0.8248    8.0029   -0.6929 H   0  0  0  0  0  0
    5.1278    2.3173    2.0794 H   0  0  0  0  0  0
    2.8732    2.6483    4.1044 H   0  0  0  0  0  0
    5.2674    5.7009    2.9995 H   0  0  0  0  0  0
   -3.0951    7.1077    1.2617 H   0  0  0  0  0  0
   -2.8073    5.8443    2.4423 H   0  0  0  0  0  0
    3.9196    0.4621    1.2176 H   0  0  0  0  0  0
    3.6133    0.3110    2.9284 H   0  0  0  0  0  0
    5.6917    2.6795    4.2979 H   0  0  0  0  0  0
   -0.2078   -0.2494    1.9141 O   0  5  0  0  0  0
    2.0059   -1.4089    2.6983 O   0  5  0  0  0  0
  1  2  1  0  0  0
  1  3  1  0  0  0
  1  4  1  0  0  0
  2  5  2  0  0  0
  2  6  1  0  0  0
  3  7  1  0  0  0
  3  8  1  0  0  0
  3 22  1  0  0  0
  4  9  2  0  0  0
  4 23  1  0  0  0
  5 10  1  0  0  0
  5  9  1  0  0  0
  6 11  2  0  0  0
  7 12  1  0  0  0
  8 13  1  0  0  0
  8 14  1  0  0  0
  8 24  1  0  0  0
 10 15  2  0  0  0
 10 16  1  0  0  0
 11 15  1  0  0  0
 11 25  1  0  0  0
 12 17  1  0  0  0
 12 13  1  0  0  0
 12 26  1  0  0  0
 13 18  1  0  0  0
 13 27  1  0  0  0
 14 28  1  0  0  0
 16 29  1  0  0  0
 16 30  1  0  0  0
 17 19  1  0  0  0
 17 31  1  0  0  0
 17 32  1  0  0  0
 18 33  1  0  0  0
 19 20  1  0  0  0
 20 21  2  0  0  0
 20 34  1  0  0  0
 20 35  1  0  0  0
M  CHG  2  34  -1  35  -1
M  END
> <i_ionizer_Ion_state_n>
6

> <i_ionizer_Tot_Q>
-2

> <s_ionizer_Ion_centers>
34_35

> <s_ionizer_Ion_types>
OM_OM

> <s_ionizer_Ion_ctrs_in>
21_22

> <r_ionizer_Ionization_penalty>
3.36536e-05

> <r_ionizer_Ionization_penalty_charging>
1.49178e-05

> <r_ionizer_Ionization_penalty_neutral>
1.87357e-05

> <s_st_Chirality_1>
3_R_7_1_8_22

> <s_st_Chirality_2>
8_R_14_3_13_24

> <s_st_Chirality_3>
12_R_7_13_17_26

> <s_st_Chirality_4>
13_R_18_8_12_27

> <i_mmod_Serial_Number-OPLS-2005>
16

> <i_i_glide_lignum>
16

> <r_i_docking_score>
-5.87761

> <r_i_glide_gscore>
-5.87761

> <r_i_glide_lipo>
-0.521345

> <r_i_glide_hbond>
-0.703

> <r_i_glide_metal>
0

> <r_i_glide_eburp>
-1.17265

> <r_i_glide_evdw>
-37.2977

> <r_i_glide_ecoul>
-6.37

> <r_i_glide_erotb>
0.546551

> <r_i_glide_esite>
-0.406349

> <r_i_glide_emodel>
-73.6378

> <r_i_glide_energy>
-43.6677

> <r_i_glide_einternal>
5.92318

> <i_i_glide_confnum>
5

> <i_i_glide_posenum>
26

$$$$
C07086
                    3D
 Structure written by MMmdl.
 17 17  0  0  1  0            999 V2000
    2.0008    2.0445    2.8984 C   0  0  0  0  0  0
    1.2420    0.8712    2.6983 C   0  0  0  0  0  0
    3.2341    1.9687    3.5805 C   0  0  0  0  0  0
    1.4972    3.3796    2.3745 C   0  0  0  0  0  0
    1.7115   -0.3668    3.1790 C   0  0  0  0  0  0
    3.7032    0.7305    4.0609 C   0  0  0  0  0  0
    0.2168    3.7444    3.1275 C   0  0  0  0  0  0
    2.9422   -0.4375    3.8601 C   0  0  0  0  0  0
    0.0999    3.3157    4.2967 O   0  0  0  0  0  0
    0.2958    0.9209    2.1794 H   0  0  0  0  0  0
    3.8199    2.8623    3.7400 H   0  0  0  0  0  0
    2.2515    4.1541    2.5192 H   0  0  0  0  0  0
    1.2984    3.3177    1.3038 H   0  0  0  0  0  0
    1.1266   -1.2616    3.0259 H   0  0  0  0  0  0
    4.6463    0.6774    4.5845 H   0  0  0  0  0  0
    3.3016   -1.3866    4.2293 H   0  0  0  0  0  0
   -0.6188    4.4527    2.5237 O   0  5  0  0  0  0
  1  2  2  0  0  0
  1  3  1  0  0  0
  1  4  1  0  0  0
  2  5  1  0  0  0
  2 10  1  0  0  0
  3  6  2  0  0  0
  3 11  1  0  0  0
  4  7  1  0  0  0
  4 12  1  0  0  0
  4 13  1  0  0  0
  5  8  2  0  0  0
  5 14  1  0  0  0
  6  8  1  0  0  0
  6 15  1  0  0  0
  7  9  2  0  0  0
  7 17  1  0  0  0
  8 16  1  0  0  0
M  CHG  1  17  -1
M  END
> <i_ionizer_Ion_state_n>
1

> <i_ionizer_Tot_Q>
-1

> <s_ionizer_Ion_centers>
17

> <s_ionizer_Ion_types>
OM

> <s_ionizer_Ion_ctrs_in>
9

> <r_ionizer_Ionization_penalty>
0.00059219

> <r_ionizer_Ionization_penalty_charging>
0.00059219

> <r_ionizer_Ionization_penalty_neutral>
0

> <i_mmod_Serial_Number-OPLS-2005>
893

> <i_i_glide_lignum>
881

> <r_i_docking_score>
-5.87695

> <r_i_glide_gscore>
-5.87695

> <r_i_glide_lipo>
-0.664052

> <r_i_glide_hbond>
-0.7

> <r_i_glide_metal>
0

> <r_i_glide_eburp>
-2.5

> <r_i_glide_evdw>
-14.5764

> <r_i_glide_ecoul>
-4.71608

> <r_i_glide_erotb>
0

> <r_i_glide_esite>
-0.375185

> <r_i_glide_emodel>
-41.6695

> <r_i_glide_energy>
-19.2924

> <r_i_glide_einternal>
0.992349

> <i_i_glide_confnum>
1

> <i_i_glide_posenum>
263

$$$$
C00096
                    3D
 Structure written by MMmdl.
 62 65  0  0  1  0            999 V2000
   -4.4540   10.4217    6.6762 N   0  0  0  0  0  0
   -3.3392   10.5358    7.4794 C   0  0  0  0  0  0
   -4.4595   10.4281    5.1813 C   0  0  2  0  0  0
   -5.5081   10.2875    7.5504 C   0  0  0  0  0  0
   -3.7870   10.4738    8.7839 C   0  0  0  0  0  0
   -2.0419   10.6787    7.0661 N   0  0  0  0  0  0
   -4.0340    9.1684    4.7479 O   0  0  0  0  0  0
   -3.4505   11.4641    4.6740 C   0  0  1  0  0  0
   -5.1684   10.3178    8.8091 N   0  0  0  0  0  0
   -2.8429   10.5683    9.8616 C   0  0  0  0  0  0
   -1.1725   10.7641    8.0565 C   0  0  0  0  0  0
   -2.8330    9.2711    3.9849 C   0  0  1  0  0  0
   -2.2229   10.6044    4.4195 C   0  0  1  0  0  0
   -3.9198   12.1003    3.5000 O   0  0  0  0  0  0
   -1.5286   10.7150    9.4017 N   0  0  0  0  0  0
   -3.0578   10.5359   11.0713 O   0  0  0  0  0  0
    0.1288   10.9061    7.7760 N   0  0  0  0  0  0
   -1.9476    8.0480    4.2548 C   0  0  0  0  0  0
   -1.3691   11.1643    3.4379 O   0  0  0  0  0  0
   -1.1708    7.7513    3.1123 O   0  0  0  0  0  0
   -1.6546    6.5472    2.0145 P   0  0  0  0  0  0
   -0.9057    5.1251    2.5767 O   0  0  0  0  0  0
   -3.1191    6.3733    2.1459 O   0  0  0  0  0  0
    0.6193    4.6628    3.1800 P   0  0  0  0  0  0
    0.4518    3.0583    3.7472 O   0  0  0  0  0  0
    1.5799    4.6682    2.0521 O   0  0  0  0  0  0
    0.6707    1.9359    2.9073 C   0  0  1  0  0  0
    1.7462    2.1330    1.9913 O   0  0  0  0  0  0
    0.8890    0.6566    3.7422 C   0  0  2  0  0  0
    3.0458    2.2227    2.5642 C   0  0  1  0  0  0
    2.3115    0.5813    4.3226 C   0  0  2  0  0  0
    0.5869   -0.4717    2.9425 O   0  0  0  0  0  0
    3.3734    0.8756    3.2524 C   0  0  2  0  0  0
    3.9912    2.5780    1.3996 C   0  0  0  0  0  0
    2.5104   -0.6811    4.9352 O   0  0  0  0  0  0
    4.6358    0.9526    3.8877 O   0  0  0  0  0  0
    3.9566    3.9586    1.1001 O   0  0  0  0  0  0
   -5.4949   10.6267    4.9018 H   0  0  0  0  0  0
   -6.5335   10.1672    7.2324 H   0  0  0  0  0  0
   -3.2603   12.2324    5.4252 H   0  0  0  0  0  0
   -3.1036    9.3185    2.9287 H   0  0  0  0  0  0
   -1.6715   10.4751    5.3515 H   0  0  0  0  0  0
   -3.9260   11.4522    2.8107 H   0  0  0  0  0  0
   -0.8112   10.7867   10.1071 H   0  0  0  0  0  0
    0.4238   10.9440    6.8109 H   0  0  0  0  0  0
    0.8131   10.9734    8.5148 H   0  0  0  0  0  0
   -1.2809    8.2368    5.0952 H   0  0  0  0  0  0
   -2.5619    7.1879    4.5227 H   0  0  0  0  0  0
   -1.8299   11.1457    2.6102 H   0  0  0  0  0  0
   -0.2285    1.8217    2.3000 H   0  0  0  0  0  0
    0.1781    0.6370    4.5659 H   0  0  0  0  0  0
    3.0429    3.0376    3.2910 H   0  0  0  0  0  0
    2.3994    1.3407    5.0964 H   0  0  0  0  0  0
    1.2022   -0.4831    2.2241 H   0  0  0  0  0  0
    3.3960    0.0750    2.5117 H   0  0  0  0  0  0
    5.0136    2.2646    1.6124 H   0  0  0  0  0  0
    3.6791    2.0499    0.4979 H   0  0  0  0  0  0
    3.4174   -0.7438    5.1931 H   0  0  0  0  0  0
    4.7957    0.1347    4.3321 H   0  0  0  0  0  0
    4.2267    4.0793    0.2029 H   0  0  0  0  0  0
   -1.0859    6.8904    0.6935 O   0  5  0  0  0  0
    0.9015    5.5115    4.3593 O   0  5  0  0  0  0
  1  2  1  0  0  0
  1  3  1  0  0  0
  1  4  1  0  0  0
  2  5  2  0  0  0
  2  6  1  0  0  0
  3  7  1  0  0  0
  3  8  1  0  0  0
  3 38  1  0  0  0
  4  9  2  0  0  0
  4 39  1  0  0  0
  5 10  1  0  0  0
  5  9  1  0  0  0
  6 11  2  0  0  0
  7 12  1  0  0  0
  8 13  1  0  0  0
  8 14  1  0  0  0
  8 40  1  0  0  0
 10 15  1  0  0  0
 10 16  2  0  0  0
 11 17  1  0  0  0
 11 15  1  0  0  0
 12 18  1  0  0  0
 12 13  1  0  0  0
 12 41  1  0  0  0
 13 19  1  0  0  0
 13 42  1  0  0  0
 14 43  1  0  0  0
 15 44  1  0  0  0
 17 45  1  0  0  0
 17 46  1  0  0  0
 18 20  1  0  0  0
 18 47  1  0  0  0
 18 48  1  0  0  0
 19 49  1  0  0  0
 20 21  1  0  0  0
 21 22  1  0  0  0
 21 23  2  0  0  0
 21 61  1  0  0  0
 22 24  1  0  0  0
 24 25  1  0  0  0
 24 26  2  0  0  0
 24 62  1  0  0  0
 25 27  1  0  0  0
 27 28  1  0  0  0
 27 29  1  0  0  0
 27 50  1  0  0  0
 28 30  1  0  0  0
 29 31  1  0  0  0
 29 32  1  0  0  0
 29 51  1  0  0  0
 30 33  1  0  0  0
 30 34  1  0  0  0
 30 52  1  0  0  0
 31 35  1  0  0  0
 31 33  1  0  0  0
 31 53  1  0  0  0
 32 54  1  0  0  0
 33 36  1  0  0  0
 33 55  1  0  0  0
 34 37  1  0  0  0
 34 56  1  0  0  0
 34 57  1  0  0  0
 35 58  1  0  0  0
 36 59  1  0  0  0
 37 60  1  0  0  0
M  CHG  2  61  -1  62  -1
M  END
> <i_ionizer_Ion_state_n>
6

> <i_ionizer_Tot_Q>
-2

> <s_ionizer_Ion_centers>
61_62

> <s_ionizer_Ion_types>
OM_OM

> <s_ionizer_Ion_ctrs_in>
23_27

> <r_ionizer_Ionization_penalty>
3.36536e-05

> <r_ionizer_Ionization_penalty_charging>
1.49178e-05

> <r_ionizer_Ionization_penalty_neutral>
1.87357e-05

> <s_st_Chirality_1>
3_R_7_1_8_38

> <s_st_Chirality_2>
8_R_14_3_13_40

> <s_st_Chirality_3>
12_R_7_13_18_41

> <s_st_Chirality_4>
13_R_19_8_12_42

> <s_st_Chirality_5>
27_R_25_28_29_50

> <s_st_Chirality_6>
29_S_32_27_31_51

> <s_st_Chirality_7>
30_R_28_33_34_52

> <s_st_Chirality_8>
31_S_35_29_33_53

> <s_st_Chirality_9>
33_R_36_31_30_55

> <i_mmod_Serial_Number-OPLS-2005>
68

> <i_i_glide_lignum>
67

> <r_i_docking_score>
-5.87631

> <r_i_glide_gscore>
-5.87631

> <r_i_glide_lipo>
-0.692605

> <r_i_glide_hbond>
-2.02883

> <r_i_glide_metal>
0

> <r_i_glide_eburp>
-0.4

> <r_i_glide_evdw>
-36.1172

> <r_i_glide_ecoul>
-12.494

> <r_i_glide_erotb>
0.45749

> <r_i_glide_esite>
0.926407

> <r_i_glide_emodel>
-95.4738

> <r_i_glide_energy>
-48.6112

> <r_i_glide_einternal>
20.8411

> <i_i_glide_confnum>
138

> <i_i_glide_posenum>
474

$$$$
C02336
                    3D
 Structure written by MMmdl.
 24 24  0  0  1  0            999 V2000
    1.3154    1.1761    2.6367 C   0  0  2  0  0  0
    1.8076    0.6779    4.0042 C   0  0  2  0  0  0
    2.4808    1.6395    2.0319 O   0  0  0  0  0  0
    0.3206    2.3450    2.7506 C   0  0  0  0  0  0
    0.7341    0.1160    1.9031 O   0  0  0  0  0  0
    3.1220    0.0098    3.6294 C   0  0  1  0  0  0
    0.9154   -0.2182    4.6409 O   0  0  0  0  0  0
    3.5943    0.8305    2.4137 C   0  0  1  0  0  0
    0.5071    3.0972    3.9342 O   0  0  0  0  0  0
    4.0518    0.1049    4.6903 O   0  0  0  0  0  0
    4.0505   -0.0234    1.2194 C   0  0  0  0  0  0
    4.5108    0.8086    0.1749 O   0  0  0  0  0  0
    1.9886    1.5453    4.6419 H   0  0  0  0  0  0
    0.4629    3.0095    1.8975 H   0  0  0  0  0  0
   -0.6992    1.9610    2.7040 H   0  0  0  0  0  0
    0.4983    0.4645    1.0559 H   0  0  0  0  0  0
    2.9633   -1.0349    3.3559 H   0  0  0  0  0  0
    1.3604   -0.5981    5.3832 H   0  0  0  0  0  0
    4.3918    1.5214    2.6928 H   0  0  0  0  0  0
    1.3823    3.4541    3.9288 H   0  0  0  0  0  0
    4.2030   -0.7652    5.0289 H   0  0  0  0  0  0
    4.8374   -0.7204    1.5092 H   0  0  0  0  0  0
    3.2163   -0.6170    0.8445 H   0  0  0  0  0  0
    4.5150    0.3095   -0.6280 H   0  0  0  0  0  0
  1  2  1  0  0  0
  1  3  1  0  0  0
  1  4  1  0  0  0
  1  5  1  0  0  0
  2  6  1  0  0  0
  2  7  1  0  0  0
  2 13  1  0  0  0
  3  8  1  0  0  0
  4  9  1  0  0  0
  4 14  1  0  0  0
  4 15  1  0  0  0
  5 16  1  0  0  0
  6 10  1  0  0  0
  6  8  1  0  0  0
  6 17  1  0  0  0
  7 18  1  0  0  0
  8 11  1  0  0  0
  8 19  1  0  0  0
  9 20  1  0  0  0
 10 21  1  0  0  0
 11 12  1  0  0  0
 11 22  1  0  0  0
 11 23  1  0  0  0
 12 24  1  0  0  0
M  END
> <i_ionizer_Ion_state_n>
0

> <i_ionizer_Tot_Q>
0

> <s_ionizer_Ion_centers>


> <s_ionizer_Ion_types>


> <s_ionizer_Ion_ctrs_in>


> <r_ionizer_Ionization_penalty>
0

> <r_ionizer_Ionization_penalty_charging>
0

> <r_ionizer_Ionization_penalty_neutral>
0

> <s_st_Chirality_1>
1_R_3_5_2_4

> <s_st_Chirality_2>
2_S_7_1_6_13

> <s_st_Chirality_3>
6_R_10_2_8_17

> <s_st_Chirality_4>
8_R_3_6_11_19

> <i_mmod_Serial_Number-OPLS-2005>
486

> <i_i_glide_lignum>
481

> <r_i_docking_score>
-5.87469

> <r_i_glide_gscore>
-5.87469

> <r_i_glide_lipo>
-0.432968

> <r_i_glide_hbond>
-1.17587

> <r_i_glide_metal>
0

> <r_i_glide_eburp>
-2.42304

> <r_i_glide_evdw>
-16.8057

> <r_i_glide_ecoul>
-12.2956

> <r_i_glide_erotb>
1.1095

> <r_i_glide_esite>
-0.378303

> <r_i_glide_emodel>
-36.0883

> <r_i_glide_energy>
-29.1012

> <r_i_glide_einternal>
7.65795

> <i_i_glide_confnum>
5

> <i_i_glide_posenum>
956

$$$$
C02097
                    3D
 Structure written by MMmdl.
 60 62  0  0  1  0            999 V2000
   -2.1089    9.9032    6.4114 C   0  0  2  0  0  0
   -1.4011   11.2002    6.0854 N   0  0  0  0  0  0
   -1.5125    8.8583    5.6975 O   0  0  0  0  0  0
   -3.5781    9.9781    5.9907 C   0  0  0  0  0  0
   -0.5210   11.7547    7.0362 C   0  0  0  0  0  0
   -1.6287   11.8785    4.8955 C   0  0  0  0  0  0
   -2.4637    8.2470    4.8254 C   0  0  1  0  0  0
   -3.5449    9.3133    4.6311 C   0  0  1  0  0  0
    0.0919   12.9607    6.7036 N   0  0  0  0  0  0
   -0.2902   11.2267    8.1231 O   0  0  0  0  0  0
   -1.0379   13.0565    4.5734 C   0  0  0  0  0  0
   -1.7784    7.7918    3.5299 C   0  0  0  0  0  0
   -4.7989    8.7498    4.3063 O   0  0  0  0  0  0
   -0.1005   13.6707    5.5165 C   0  0  0  0  0  0
   -1.3203   13.7748    3.2654 C   0  0  0  0  0  0
   -0.7076    6.9252    3.8401 O   0  0  0  0  0  0
    0.5017   14.7282    5.3383 O   0  0  0  0  0  0
   -0.2513    5.6811    2.7778 P   0  0  0  0  0  0
    1.3452    5.2992    3.2299 O   0  0  0  0  0  0
   -1.1034    4.5036    3.0614 O   0  0  0  0  0  0
    2.5575    4.2992    2.5833 P   0  0  0  0  0  0
    1.8176    2.7700    2.6805 O   0  0  0  0  0  0
    2.7670    4.6696    1.1668 O   0  0  0  0  0  0
    2.2666    1.6307    1.9658 C   0  0  1  0  0  0
    3.5912    1.2737    2.3559 O   0  0  0  0  0  0
    1.3872    0.3989    2.2744 C   0  0  1  0  0  0
    3.7589    1.0912    3.7679 C   0  0  1  0  0  0
    1.3745    0.1479    3.7890 C   0  0  2  0  0  0
    0.0890    0.5274    1.7407 O   0  0  0  0  0  0
    2.8248   -0.0360    4.2878 C   0  0  1  0  0  0
    5.2561    0.8790    4.0600 C   0  0  0  0  0  0
    0.6003   -0.9931    4.1189 O   0  0  0  0  0  0
    3.3245   -1.3014    3.8877 O   0  0  0  0  0  0
    5.4575    0.5017    5.4070 O   0  0  0  0  0  0
   -1.9698    9.7319    7.4796 H   0  0  0  0  0  0
   -4.1652    9.3914    6.6987 H   0  0  0  0  0  0
   -3.9567   11.0010    5.9782 H   0  0  0  0  0  0
   -2.3171   11.4571    4.1813 H   0  0  0  0  0  0
   -2.8898    7.3873    5.3457 H   0  0  0  0  0  0
   -3.2501   10.0329    3.8690 H   0  0  0  0  0  0
    0.7246   13.3590    7.3811 H   0  0  0  0  0  0
   -2.4797    7.2654    2.8838 H   0  0  0  0  0  0
   -1.4107    8.6519    2.9698 H   0  0  0  0  0  0
   -4.9494    8.9032    3.3839 H   0  0  0  0  0  0
   -2.0190   13.2145    2.6431 H   0  0  0  0  0  0
   -1.7566   14.7553    3.4582 H   0  0  0  0  0  0
   -0.3992   13.9123    2.6986 H   0  0  0  0  0  0
    2.2689    1.8388    0.8951 H   0  0  0  0  0  0
    1.8229   -0.4671    1.7741 H   0  0  0  0  0  0
    3.4725    2.0224    4.2598 H   0  0  0  0  0  0
    0.9244    1.0057    4.2912 H   0  0  0  0  0  0
    0.1697    0.6518    0.8069 H   0  0  0  0  0  0
    2.8277   -0.0282    5.3784 H   0  0  0  0  0  0
    5.6943    0.1335    3.3963 H   0  0  0  0  0  0
    5.7980    1.8094    3.8882 H   0  0  0  0  0  0
    1.1887   -1.7159    4.2770 H   0  0  0  0  0  0
    3.9402   -1.5895    4.5451 H   0  0  0  0  0  0
    5.2153   -0.4064    5.5039 H   0  0  0  0  0  0
   -0.2317    6.2507    1.4111 O   0  5  0  0  0  0
    3.7096    4.3121    3.5130 O   0  5  0  0  0  0
  1  2  1  0  0  0
  1  3  1  0  0  0
  1  4  1  0  0  0
  1 35  1  0  0  0
  2  5  1  0  0  0
  2  6  1  0  0  0
  3  7  1  0  0  0
  4  8  1  0  0  0
  4 36  1  0  0  0
  4 37  1  0  0  0
  5  9  1  0  0  0
  5 10  2  0  0  0
  6 11  2  0  0  0
  6 38  1  0  0  0
  7 12  1  0  0  0
  7  8  1  0  0  0
  7 39  1  0  0  0
  8 13  1  0  0  0
  8 40  1  0  0  0
  9 14  1  0  0  0
  9 41  1  0  0  0
 11 15  1  0  0  0
 11 14  1  0  0  0
 12 16  1  0  0  0
 12 42  1  0  0  0
 12 43  1  0  0  0
 13 44  1  0  0  0
 14 17  2  0  0  0
 15 45  1  0  0  0
 15 46  1  0  0  0
 15 47  1  0  0  0
 16 18  1  0  0  0
 18 19  1  0  0  0
 18 20  2  0  0  0
 18 59  1  0  0  0
 19 21  1  0  0  0
 21 22  1  0  0  0
 21 23  2  0  0  0
 21 60  1  0  0  0
 22 24  1  0  0  0
 24 25  1  0  0  0
 24 26  1  0  0  0
 24 48  1  0  0  0
 25 27  1  0  0  0
 26 28  1  0  0  0
 26 29  1  0  0  0
 26 49  1  0  0  0
 27 30  1  0  0  0
 27 31  1  0  0  0
 27 50  1  0  0  0
 28 32  1  0  0  0
 28 30  1  0  0  0
 28 51  1  0  0  0
 29 52  1  0  0  0
 30 33  1  0  0  0
 30 53  1  0  0  0
 31 34  1  0  0  0
 31 54  1  0  0  0
 31 55  1  0  0  0
 32 56  1  0  0  0
 33 57  1  0  0  0
 34 58  1  0  0  0
M  CHG  2  59  -1  60  -1
M  END
> <i_ionizer_Ion_state_n>
3

> <i_ionizer_Tot_Q>
-2

> <s_ionizer_Ion_centers>
59_60

> <s_ionizer_Ion_types>
OM_OM

> <s_ionizer_Ion_ctrs_in>
20_24

> <r_ionizer_Ionization_penalty>
1.49178e-05

> <r_ionizer_Ionization_penalty_charging>
1.49178e-05

> <r_ionizer_Ionization_penalty_neutral>
0

> <s_st_Chirality_1>
1_R_3_2_4_35

> <s_st_Chirality_2>
7_R_3_8_12_39

> <s_st_Chirality_3>
8_S_13_7_4_40

> <s_st_Chirality_4>
24_R_22_25_26_48

> <s_st_Chirality_5>
26_R_29_24_28_49

> <s_st_Chirality_6>
27_R_25_30_31_50

> <s_st_Chirality_7>
28_S_32_26_30_51

> <s_st_Chirality_8>
30_S_33_28_27_53

> <i_mmod_Serial_Number-OPLS-2005>
471

> <i_i_glide_lignum>
466

> <r_i_docking_score>
-5.87453

> <r_i_glide_gscore>
-5.87453

> <r_i_glide_lipo>
-0.867199

> <r_i_glide_hbond>
-2.19752

> <r_i_glide_metal>
0

> <r_i_glide_eburp>
0.197521

> <r_i_glide_evdw>
-25.2583

> <r_i_glide_ecoul>
-19.8761

> <r_i_glide_erotb>
0.582918

> <r_i_glide_esite>
0.418028

> <r_i_glide_emodel>
-97.6131

> <r_i_glide_energy>
-45.1345

> <r_i_glide_einternal>
8.06096

> <i_i_glide_confnum>
280

> <i_i_glide_posenum>
99

$$$$
C06199
                    3D
 Structure written by MMmdl.
 28 28  0  0  1  0            999 V2000
    3.1537   -0.0671    1.9033 C   0  0  0  0  0  0
    1.7883   -0.2892    1.6261 C   0  0  0  0  0  0
    3.6214   -0.1640    3.2308 C   0  0  0  0  0  0
    4.1142    0.2678    0.7783 C   0  0  0  0  0  0
    0.8967   -0.6049    2.6698 C   0  0  0  0  0  0
    2.7295   -0.4796    4.2745 C   0  0  0  0  0  0
    4.6145   -0.9953    0.0554 C   0  0  0  0  0  0
    1.3663   -0.7002    3.9944 C   0  0  0  0  0  0
    0.4998   -1.0063    5.0027 O   0  0  0  0  0  0
    6.8769   -0.0780   -0.2345 C   0  0  0  0  0  0
    6.1259   -1.8962   -1.6907 C   0  0  0  0  0  0
    1.4199   -0.2193    0.6130 H   0  0  0  0  0  0
    4.6653    0.0022    3.4538 H   0  0  0  0  0  0
    3.6051    0.9392    0.0870 H   0  0  0  0  0  0
    4.9581    0.8271    1.1845 H   0  0  0  0  0  0
   -0.1479   -0.7739    2.4525 H   0  0  0  0  0  0
    3.0962   -0.5516    5.2880 H   0  0  0  0  0  0
    4.9719   -1.6965    0.8114 H   0  0  0  0  0  0
    3.7944   -1.4939   -0.4642 H   0  0  0  0  0  0
    0.9224   -1.0992    5.8427 H   0  0  0  0  0  0
    7.6491    0.1748   -0.9620 H   0  0  0  0  0  0
    6.5823    0.8460    0.2644 H   0  0  0  0  0  0
    7.3141   -0.7447    0.5101 H   0  0  0  0  0  0
    6.9248   -1.6352   -2.3857 H   0  0  0  0  0  0
    6.4897   -2.6945   -1.0423 H   0  0  0  0  0  0
    5.3003   -2.2873   -2.2842 H   0  0  0  0  0  0
    5.7164   -0.7126   -0.8990 N   0  3  0  0  0  0
    5.3631   -0.0292   -1.5539 H   0  0  0  0  0  0
  1  2  1  0  0  0
  1  3  2  0  0  0
  1  4  1  0  0  0
  2  5  2  0  0  0
  2 12  1  0  0  0
  3  6  1  0  0  0
  3 13  1  0  0  0
  4  7  1  0  0  0
  4 14  1  0  0  0
  4 15  1  0  0  0
  5  8  1  0  0  0
  5 16  1  0  0  0
  6  8  2  0  0  0
  6 17  1  0  0  0
  7 18  1  0  0  0
  7 19  1  0  0  0
  7 27  1  0  0  0
  8  9  1  0  0  0
  9 20  1  0  0  0
 10 21  1  0  0  0
 10 22  1  0  0  0
 10 23  1  0  0  0
 10 27  1  0  0  0
 11 24  1  0  0  0
 11 25  1  0  0  0
 11 26  1  0  0  0
 11 27  1  0  0  0
 27 28  1  0  0  0
M  CHG  1  27   1
M  END
> <i_ionizer_Ion_state_n>
1

> <i_ionizer_Tot_Q>
1

> <s_ionizer_Ion_centers>
27

> <s_ionizer_Ion_types>
N5

> <s_ionizer_Ion_ctrs_in>
9

> <r_ionizer_Ionization_penalty>
0.00118438

> <r_ionizer_Ionization_penalty_charging>
0.00059219

> <r_ionizer_Ionization_penalty_neutral>
0.00059219

> <i_mmod_Serial_Number-OPLS-2005>
866

> <i_i_glide_lignum>
854

> <r_i_docking_score>
-5.86339

> <r_i_glide_gscore>
-5.86339

> <r_i_glide_lipo>
-1.10755

> <r_i_glide_hbond>
-0.700131

> <r_i_glide_metal>
0

> <r_i_glide_eburp>
-2.5

> <r_i_glide_evdw>
-21.5715

> <r_i_glide_ecoul>
-4.18178

> <r_i_glide_erotb>
1.2652

> <r_i_glide_esite>
-0.677002

> <r_i_glide_emodel>
-38.899

> <r_i_glide_energy>
-25.7533

> <r_i_glide_einternal>
0.444321

> <i_i_glide_confnum>
1

> <i_i_glide_posenum>
810

$$$$
C09825
                    3D
 Structure written by MMmdl.
 98101  0  0  1  0            999 V2000
   -9.4221    8.8614   12.2131 N   0  0  0  0  0  0
  -10.6872    8.9426   11.4082 C   0  0  1  0  0  0
   -9.3102    8.2367   13.4373 C   0  0  0  0  0  0
   -8.1410    9.2992   11.9259 C   0  0  0  0  0  0
  -11.6958    9.9509   11.9745 C   0  0  1  0  0  0
  -10.3413    9.3777   10.1233 O   0  0  0  0  0  0
   -7.9478    8.3632   13.8206 C   0  0  0  0  0  0
  -10.2879    7.6157   14.1613 N   0  0  0  0  0  0
   -7.2428    9.0447   12.8402 N   0  0  0  0  0  0
  -12.2957   10.5008   10.6956 C   0  0  1  0  0  0
  -12.7318    9.3721   12.7384 O   0  0  0  0  0  0
  -11.0741   10.5510    9.7636 C   0  0  1  0  0  0
   -7.6018    7.7898   15.0696 C   0  0  0  0  0  0
   -9.8146    7.1246   15.3100 C   0  0  0  0  0  0
  -13.2419    9.5420   10.2230 O   0  0  0  0  0  0
  -10.1389   11.7579    9.9646 C   0  0  0  0  0  0
   -8.5679    7.1754   15.7911 N   0  0  0  0  0  0
   -6.3601    7.8253   15.5708 N   0  0  0  0  0  0
  -14.4215   10.0689    8.9766 P   0  0  0  0  0  0
   -8.8814   11.5767    9.3478 O   0  0  0  0  0  0
  -15.3046   11.0861    9.7322 O   0  0  0  0  0  0
   -7.5532   12.5365    9.8026 P   0  0  0  0  0  0
   -7.5809   13.7887    8.6497 O   0  0  0  0  0  0
   -7.8460   13.1293   11.1281 O   0  0  0  0  0  0
   -6.4321   14.6458    7.7327 P   0  0  0  0  0  0
   -5.5250   13.4326    6.9500 O   0  0  0  0  0  0
   -7.1603   15.3969    6.6852 O   0  0  0  0  0  0
   -6.0935   12.1870    6.5821 C   0  0  0  0  0  0
   -5.0670   11.2593    5.8830 C   0  0  0  0  0  0
   -5.7070    9.8351    5.7511 C   0  0  2  0  0  0
   -4.6951   11.8628    4.5080 C   0  0  0  0  0  0
   -3.7888   11.1887    6.7503 C   0  0  0  0  0  0
   -4.8406    8.7822    5.0347 C   0  0  0  0  0  0
   -6.9623    9.9056    5.0978 O   0  0  0  0  0  0
   -4.2372    9.1794    3.9046 N   0  0  0  0  0  0
   -4.7009    7.6517    5.5027 O   0  0  0  0  0  0
   -3.5421    8.2889    2.9854 C   0  0  0  0  0  0
   -2.0192    8.4714    3.1052 C   0  0  0  0  0  0
   -1.2248    7.3580    2.4151 C   0  0  0  0  0  0
   -0.2035    7.7508    1.6406 N   0  0  0  0  0  0
   -1.5298    6.1759    2.5743 O   0  0  0  0  0  0
    0.6495    6.8428    0.8865 C   0  0  0  0  0  0
    1.1096    5.6728    1.7681 C   0  0  0  0  0  0
    2.4892    4.7519    1.0209 S   0  0  0  0  0  0
    2.8286    3.5503    2.3459 C   0  0  0  0  0  0
    2.7951    2.0541    1.9731 C   0  0  2  0  0  0
    3.0920    3.8961    3.4969 O   0  0  0  0  0  0
    2.3457    1.1155    3.1261 C   0  0  1  0  0  0
    4.0991    1.5708    1.3031 C   0  0  0  0  0  0
    2.1691   -0.3469    2.6518 C   0  0  0  0  0  0
    3.2662    1.1127    4.2054 O   0  0  0  0  0  0
    4.3821    0.0668    1.3748 C   0  0  0  0  0  0
    4.8638    2.3276    0.7037 O   0  0  0  0  0  0
    3.0753   -0.7431    1.4641 C   0  0  0  0  0  0
  -11.0804    7.9264   11.3594 H   0  0  0  0  0  0
   -7.8667    9.8215   11.0218 H   0  0  0  0  0  0
  -11.2028   10.7420   12.5333 H   0  0  0  0  0  0
  -12.7777   11.4674   10.8415 H   0  0  0  0  0  0
  -12.3115    8.9748   13.4900 H   0  0  0  0  0  0
  -11.3600   10.5133    8.7140 H   0  0  0  0  0  0
  -10.5368    6.6189   15.9338 H   0  0  0  0  0  0
  -10.5756   12.6624    9.5494 H   0  0  0  0  0  0
  -10.0068   11.9426   11.0311 H   0  0  0  0  0  0
   -6.1656    7.3997   16.4649 H   0  0  0  0  0  0
   -5.6242    8.2758   15.0457 H   0  0  0  0  0  0
   -6.5118   11.6963    7.4616 H   0  0  0  0  0  0
   -6.9375   12.3908    5.9268 H   0  0  0  0  0  0
   -5.9136    9.4642    6.7567 H   0  0  0  0  0  0
   -5.5561   11.9082    3.8417 H   0  0  0  0  0  0
   -3.9188   11.2881    4.0044 H   0  0  0  0  0  0
   -4.3161   12.8799    4.6121 H   0  0  0  0  0  0
   -3.0117   10.5778    6.2910 H   0  0  0  0  0  0
   -3.3551   12.1775    6.9014 H   0  0  0  0  0  0
   -4.0004   10.7704    7.7348 H   0  0  0  0  0  0
   -6.8349   10.2641    4.2332 H   0  0  0  0  0  0
   -4.2710   10.1596    3.6648 H   0  0  0  0  0  0
   -3.8184    7.2565    3.2079 H   0  0  0  0  0  0
   -3.8726    8.5003    1.9668 H   0  0  0  0  0  0
   -1.7223    9.4259    2.6691 H   0  0  0  0  0  0
   -1.7388    8.5059    4.1592 H   0  0  0  0  0  0
   -0.0084    8.7388    1.5680 H   0  0  0  0  0  0
    0.1003    6.4638    0.0230 H   0  0  0  0  0  0
    1.5072    7.3965    0.5026 H   0  0  0  0  0  0
    1.3824    6.0113    2.7683 H   0  0  0  0  0  0
    0.2829    4.9733    1.8963 H   0  0  0  0  0  0
    2.0370    1.9708    1.1927 H   0  0  0  0  0  0
    1.3956    1.4665    3.5319 H   0  0  0  0  0  0
    2.3284   -1.0318    3.4864 H   0  0  0  0  0  0
    1.1327   -0.5018    2.3495 H   0  0  0  0  0  0
    3.1368    0.3282    4.7171 H   0  0  0  0  0  0
    4.9511   -0.2361    0.4951 H   0  0  0  0  0  0
    5.0108   -0.1305    2.2436 H   0  0  0  0  0  0
    3.2983   -1.8094    1.5124 H   0  0  0  0  0  0
    2.5201   -0.6019    0.5354 H   0  0  0  0  0  0
  -13.4891   10.6508    7.8913 O   0  5  0  0  0  0
  -15.1006    8.7275    8.6226 O   0  5  0  0  0  0
   -6.3186   11.7412    9.6166 O   0  5  0  0  0  0
   -5.5414   15.3807    8.6602 O   0  5  0  0  0  0
  1  2  1  0  0  0
  1  3  1  0  0  0
  1  4  1  0  0  0
  2  5  1  0  0  0
  2  6  1  0  0  0
  2 55  1  0  0  0
  3  7  2  0  0  0
  3  8  1  0  0  0
  4  9  2  0  0  0
  4 56  1  0  0  0
  5 10  1  0  0  0
  5 11  1  0  0  0
  5 57  1  0  0  0
  6 12  1  0  0  0
  7 13  1  0  0  0
  7  9  1  0  0  0
  8 14  2  0  0  0
 10 15  1  0  0  0
 10 12  1  0  0  0
 10 58  1  0  0  0
 11 59  1  0  0  0
 12 16  1  0  0  0
 12 60  1  0  0  0
 13 17  2  0  0  0
 13 18  1  0  0  0
 14 17  1  0  0  0
 14 61  1  0  0  0
 15 19  1  0  0  0
 16 20  1  0  0  0
 16 62  1  0  0  0
 16 63  1  0  0  0
 18 64  1  0  0  0
 18 65  1  0  0  0
 19 21  2  0  0  0
 19 95  1  0  0  0
 19 96  1  0  0  0
 20 22  1  0  0  0
 22 23  1  0  0  0
 22 24  2  0  0  0
 22 97  1  0  0  0
 23 25  1  0  0  0
 25 26  1  0  0  0
 25 27  2  0  0  0
 25 98  1  0  0  0
 26 28  1  0  0  0
 28 29  1  0  0  0
 28 66  1  0  0  0
 28 67  1  0  0  0
 29 30  1  0  0  0
 29 31  1  0  0  0
 29 32  1  0  0  0
 30 33  1  0  0  0
 30 34  1  0  0  0
 30 68  1  0  0  0
 31 69  1  0  0  0
 31 70  1  0  0  0
 31 71  1  0  0  0
 32 72  1  0  0  0
 32 73  1  0  0  0
 32 74  1  0  0  0
 33 35  1  0  0  0
 33 36  2  0  0  0
 34 75  1  0  0  0
 35 37  1  0  0  0
 35 76  1  0  0  0
 37 38  1  0  0  0
 37 77  1  0  0  0
 37 78  1  0  0  0
 38 39  1  0  0  0
 38 79  1  0  0  0
 38 80  1  0  0  0
 39 40  1  0  0  0
 39 41  2  0  0  0
 40 42  1  0  0  0
 40 81  1  0  0  0
 42 43  1  0  0  0
 42 82  1  0  0  0
 42 83  1  0  0  0
 43 44  1  0  0  0
 43 84  1  0  0  0
 43 85  1  0  0  0
 44 45  1  0  0  0
 45 46  1  0  0  0
 45 47  2  0  0  0
 46 48  1  0  0  0
 46 49  1  0  0  0
 46 86  1  0  0  0
 48 50  1  0  0  0
 48 51  1  0  0  0
 48 87  1  0  0  0
 49 52  1  0  0  0
 49 53  2  0  0  0
 50 54  1  0  0  0
 50 88  1  0  0  0
 50 89  1  0  0  0
 51 90  1  0  0  0
 52 54  1  0  0  0
 52 91  1  0  0  0
 52 92  1  0  0  0
 54 93  1  0  0  0
 54 94  1  0  0  0
M  CHG  4  95  -1  96  -1  97  -1  98  -1
M  END
> <i_ionizer_Ion_state_n>
30

> <i_ionizer_Tot_Q>
-4

> <s_ionizer_Ion_centers>
95_96_97_98

> <s_ionizer_Ion_types>
OM_OM_OM_OM

> <s_ionizer_Ion_ctrs_in>
21_22_26_30

> <r_ionizer_Ionization_penalty>
4.85714e-05

> <r_ionizer_Ionization_penalty_charging>
2.98356e-05

> <r_ionizer_Ionization_penalty_neutral>
1.87357e-05

> <s_st_Chirality_1>
2_R_6_1_5_55

> <s_st_Chirality_2>
5_R_11_2_10_57

> <s_st_Chirality_3>
10_R_15_5_12_58

> <s_st_Chirality_4>
12_R_6_10_16_60

> <s_st_Chirality_5>
30_R_34_33_29_68

> <s_st_Chirality_6>
46_R_45_49_48_86

> <s_st_Chirality_7>
48_R_51_46_50_87

> <i_mmod_Serial_Number-OPLS-2005>
920

> <i_i_glide_lignum>
908

> <r_i_docking_score>
-5.85705

> <r_i_glide_gscore>
-5.85705

> <r_i_glide_lipo>
-1.03166

> <r_i_glide_hbond>
-1.11896

> <r_i_glide_metal>
0

> <r_i_glide_eburp>
-7.00395e-17

> <r_i_glide_evdw>
-43.4073

> <r_i_glide_ecoul>
-7.95315

> <r_i_glide_erotb>
0.429962

> <r_i_glide_esite>
0.131511

> <r_i_glide_emodel>
-91.305

> <r_i_glide_energy>
-51.3604

> <r_i_glide_einternal>
14.1022

> <i_i_glide_confnum>
1236

> <i_i_glide_posenum>
732

$$$$
C05135
                    3D
 Structure written by MMmdl.
 23 23  0  0  1  0            999 V2000
    6.0222   -0.5745    0.4628 C   0  0  0  0  0  0
    4.7489   -0.3139    1.1985 C   0  0  0  0  0  0
    7.3174   -0.6998    0.9015 C   0  0  0  0  0  0
    5.0114    0.1375    2.6422 C   0  0  0  0  0  0
    8.0929   -0.9312   -0.2031 N   0  0  0  0  0  0
    7.3315   -0.9538   -1.3002 C   0  0  0  0  0  0
    3.9397   -0.3020    3.5255 N   0  0  0  0  0  0
    2.6902    0.1814    3.4896 C   0  0  0  0  0  0
    1.6995   -0.4283    4.4750 C   0  0  0  0  0  0
    2.3290    1.0677    2.7167 O   0  0  0  0  0  0
    4.1792    0.4452    0.6608 H   0  0  0  0  0  0
    4.1470   -1.2236    1.1919 H   0  0  0  0  0  0
    7.7340   -0.6412    1.8972 H   0  0  0  0  0  0
    5.9590   -0.2718    2.9965 H   0  0  0  0  0  0
    5.0925    1.2249    2.6880 H   0  0  0  0  0  0
    9.0966   -1.0657   -0.1936 H   0  0  0  0  0  0
    7.6649   -1.1145   -2.3104 H   0  0  0  0  0  0
    4.1581   -1.0139    4.2075 H   0  0  0  0  0  0
    0.7156    0.0295    4.3674 H   0  0  0  0  0  0
    1.5978   -1.4997    4.3003 H   0  0  0  0  0  0
    2.0370   -0.2740    5.5002 H   0  0  0  0  0  0
    6.0747   -0.7376   -0.8991 N   0  3  0  0  0  0
    5.2743   -0.7001   -1.5181 H   0  0  0  0  0  0
  1  2  1  0  0  0
  1  3  2  0  0  0
  1 22  1  0  0  0
  2  4  1  0  0  0
  2 11  1  0  0  0
  2 12  1  0  0  0
  3  5  1  0  0  0
  3 13  1  0  0  0
  4  7  1  0  0  0
  4 14  1  0  0  0
  4 15  1  0  0  0
  5  6  1  0  0  0
  5 16  1  0  0  0
  6 17  1  0  0  0
  6 22  2  0  0  0
  7  8  1  0  0  0
  7 18  1  0  0  0
  8  9  1  0  0  0
  8 10  2  0  0  0
  9 19  1  0  0  0
  9 20  1  0  0  0
  9 21  1  0  0  0
 22 23  1  0  0  0
M  CHG  1  22   1
M  END
> <i_ionizer_Ion_state_n>
1

> <i_ionizer_Tot_Q>
1

> <s_ionizer_Ion_centers>
22

> <s_ionizer_Ion_types>
N4

> <s_ionizer_Ion_ctrs_in>
4

> <r_ionizer_Ionization_penalty>
0.41068

> <r_ionizer_Ionization_penalty_charging>
0.41068

> <r_ionizer_Ionization_penalty_neutral>
0

> <i_mmod_Serial_Number-OPLS-2005>
634

> <i_i_glide_lignum>
627

> <r_i_docking_score>
-5.85472

> <r_i_glide_gscore>
-5.85472

> <r_i_glide_lipo>
-0.544458

> <r_i_glide_hbond>
-0.942822

> <r_i_glide_metal>
0

> <r_i_glide_eburp>
-2.5

> <r_i_glide_evdw>
-19.2255

> <r_i_glide_ecoul>
-7.67003

> <r_i_glide_erotb>
1.42876

> <r_i_glide_esite>
-0.991155

> <r_i_glide_emodel>
-42.206

> <r_i_glide_energy>
-26.8955

> <r_i_glide_einternal>
2.44298

> <i_i_glide_confnum>
1

> <i_i_glide_posenum>
34

$$$$
C00239
                    3D
 Structure written by MMmdl.
 32 33  0  0  1  0            999 V2000
    0.6957    5.9040    1.6330 N   0  0  0  0  0  0
    1.7993    4.9180    1.3153 C   0  0  2  0  0  0
   -0.0891    5.6875    2.7901 C   0  0  0  0  0  0
    0.4234    6.9904    0.8127 C   0  0  0  0  0  0
    1.3316    3.5889    1.5024 O   0  0  0  0  0  0
    2.9569    5.0875    2.2920 C   0  0  0  0  0  0
   -1.0851    6.5889    3.0539 N   0  0  0  0  0  0
    0.1038    4.7253    3.5324 O   0  0  0  0  0  0
   -0.5656    7.8690    1.0863 C   0  0  0  0  0  0
    2.2762    2.8056    2.2177 C   0  0  1  0  0  0
    3.5168    3.6883    2.4216 C   0  0  1  0  0  0
   -1.3414    7.6258    2.2811 C   0  0  0  0  0  0
    1.7013    2.2823    3.5452 C   0  0  0  0  0  0
    4.4976    3.4330    1.4399 O   0  0  0  0  0  0
   -2.3390    8.4522    2.6228 N   0  0  0  0  0  0
    0.6330    1.3803    3.3111 O   0  0  0  0  0  0
    1.1086   -0.3118    2.9686 P   0  0  0  0  0  0
    2.5738   -0.1468    2.5088 O   0  0  0  0  0  0
    2.0985    5.1197    0.2856 H   0  0  0  0  0  0
    1.0058    7.1604   -0.0797 H   0  0  0  0  0  0
    3.7118    5.7352    1.8436 H   0  0  0  0  0  0
    2.6484    5.5125    3.2478 H   0  0  0  0  0  0
   -0.7408    8.7026    0.4213 H   0  0  0  0  0  0
    2.5699    1.9657    1.5856 H   0  0  0  0  0  0
    3.9334    3.5355    3.4180 H   0  0  0  0  0  0
    2.4822    1.8486    4.1703 H   0  0  0  0  0  0
    1.2824    3.1140    4.1115 H   0  0  0  0  0  0
    4.1271    3.6902    0.5993 H   0  0  0  0  0  0
   -2.5577    9.2520    2.0470 H   0  0  0  0  0  0
   -2.8725    8.2674    3.4598 H   0  0  0  0  0  0
    0.9011   -0.9863    4.3430 O   0  5  0  0  0  0
    0.0980   -0.6976    1.8670 O   0  5  0  0  0  0
  1  2  1  0  0  0
  1  3  1  0  0  0
  1  4  1  0  0  0
  2  5  1  0  0  0
  2  6  1  0  0  0
  2 19  1  0  0  0
  3  7  1  0  0  0
  3  8  2  0  0  0
  4  9  2  0  0  0
  4 20  1  0  0  0
  5 10  1  0  0  0
  6 11  1  0  0  0
  6 21  1  0  0  0
  6 22  1  0  0  0
  7 12  2  0  0  0
  9 12  1  0  0  0
  9 23  1  0  0  0
 10 13  1  0  0  0
 10 11  1  0  0  0
 10 24  1  0  0  0
 11 14  1  0  0  0
 11 25  1  0  0  0
 12 15  1  0  0  0
 13 16  1  0  0  0
 13 26  1  0  0  0
 13 27  1  0  0  0
 14 28  1  0  0  0
 15 29  1  0  0  0
 15 30  1  0  0  0
 16 17  1  0  0  0
 17 18  2  0  0  0
 17 31  1  0  0  0
 17 32  1  0  0  0
M  CHG  2  31  -1  32  -1
M  END
> <i_ionizer_Ion_state_n>
3

> <i_ionizer_Tot_Q>
-2

> <s_ionizer_Ion_centers>
31_32

> <s_ionizer_Ion_types>
OM_OM

> <s_ionizer_Ion_ctrs_in>
18_19

> <r_ionizer_Ionization_penalty>
1.49178e-05

> <r_ionizer_Ionization_penalty_charging>
1.49178e-05

> <r_ionizer_Ionization_penalty_neutral>
0

> <s_st_Chirality_1>
2_R_5_1_6_19

> <s_st_Chirality_2>
10_R_5_11_13_24

> <s_st_Chirality_3>
11_S_14_10_6_25

> <i_mmod_Serial_Number-OPLS-2005>
157

> <i_i_glide_lignum>
155

> <r_i_docking_score>
-5.85435

> <r_i_glide_gscore>
-5.85435

> <r_i_glide_lipo>
-0.620426

> <r_i_glide_hbond>
-1.28134

> <r_i_glide_metal>
0

> <r_i_glide_eburp>
-1.47587

> <r_i_glide_evdw>
-25.5252

> <r_i_glide_ecoul>
-9.84652

> <r_i_glide_erotb>
0.679299

> <r_i_glide_esite>
-0.129345

> <r_i_glide_emodel>
-78.4136

> <r_i_glide_energy>
-35.3717

> <r_i_glide_einternal>
5.72868

> <i_i_glide_confnum>
43

> <i_i_glide_posenum>
307

$$$$
C03373
                    3D
 Structure written by MMmdl.
 32 33  0  0  1  0            999 V2000
    2.7373   -0.2606    1.2173 C   0  0  2  0  0  0
    4.1241   -0.1964    0.6502 N   0  0  0  0  0  0
    2.1735    1.0167    1.1334 O   0  0  0  0  0  0
    2.8141   -0.6290    2.6995 C   0  0  1  0  0  0
    4.9680    0.8755    0.4850 C   0  0  0  0  0  0
    4.8542   -1.2204    0.1403 C   0  0  0  0  0  0
    2.0043    1.5970    2.4293 C   0  0  1  0  0  0
    2.8879    0.7428    3.3483 C   0  0  1  0  0  0
    1.6767   -1.3683    3.0999 O   0  0  0  0  0  0
    6.1577    0.4775   -0.1008 C   0  0  0  0  0  0
    4.6515    2.1302    0.8423 N   0  0  0  0  0  0
    2.3050    3.1065    2.3258 C   0  0  0  0  0  0
    2.4579    0.7117    4.6956 O   0  0  0  0  0  0
    1.1937    3.8796    1.8995 O   0  0  0  0  0  0
   -0.0174    4.3822    3.1340 P   0  0  0  0  0  0
   -1.3167    4.3458    2.3000 O   0  0  0  0  0  0
    2.2113   -0.9833    0.5928 H   0  0  0  0  0  0
    3.7004   -1.2292    2.9116 H   0  0  0  0  0  0
    4.4889   -2.2301    0.0968 H   0  0  0  0  0  0
    0.9618    1.4550    2.7188 H   0  0  0  0  0  0
    3.9221    1.0778    3.3167 H   0  0  0  0  0  0
    1.7419   -1.5019    4.0348 H   0  0  0  0  0  0
    7.0371    1.0406   -0.3779 H   0  0  0  0  0  0
    5.2895    2.8995    0.6945 H   0  0  0  0  0  0
    3.7536    2.3590    1.2450 H   0  0  0  0  0  0
    2.7266    3.4950    3.2498 H   0  0  0  0  0  0
    3.0951    3.2488    1.5887 H   0  0  0  0  0  0
    2.9650    0.0381    5.1410 H   0  0  0  0  0  0
    6.0534   -0.8781   -0.3125 N   0  3  0  0  0  0
    6.7383   -1.4933   -0.7340 H   0  0  0  0  0  0
    0.0999    3.3000    4.2336 O   0  5  0  0  0  0
    0.5004    5.7848    3.5167 O   0  5  0  0  0  0
  1  2  1  0  0  0
  1  3  1  0  0  0
  1  4  1  0  0  0
  1 17  1  0  0  0
  2  5  1  0  0  0
  2  6  1  0  0  0
  3  7  1  0  0  0
  4  8  1  0  0  0
  4  9  1  0  0  0
  4 18  1  0  0  0
  5 10  2  0  0  0
  5 11  1  0  0  0
  6 19  1  0  0  0
  6 29  2  0  0  0
  7 12  1  0  0  0
  7  8  1  0  0  0
  7 20  1  0  0  0
  8 13  1  0  0  0
  8 21  1  0  0  0
  9 22  1  0  0  0
 10 23  1  0  0  0
 10 29  1  0  0  0
 11 24  1  0  0  0
 11 25  1  0  0  0
 12 14  1  0  0  0
 12 26  1  0  0  0
 12 27  1  0  0  0
 13 28  1  0  0  0
 14 15  1  0  0  0
 15 16  2  0  0  0
 15 31  1  0  0  0
 15 32  1  0  0  0
 29 30  1  0  0  0
M  CHG  3  29   1  31  -1  32  -1
M  END
> <i_ionizer_Ion_state_n>
7

> <i_ionizer_Tot_Q>
-1

> <s_ionizer_Ion_centers>
29_31_32

> <s_ionizer_Ion_types>
N4_OM_OM

> <s_ionizer_Ion_ctrs_in>
12_17_18

> <r_ionizer_Ionization_penalty>
0.410695

> <r_ionizer_Ionization_penalty_charging>
0.410695

> <r_ionizer_Ionization_penalty_neutral>
0

> <s_st_Chirality_1>
1_R_3_2_4_17

> <s_st_Chirality_2>
4_R_9_1_8_18

> <s_st_Chirality_3>
7_R_3_8_12_20

> <s_st_Chirality_4>
8_R_13_4_7_21

> <i_mmod_Serial_Number-OPLS-2005>
539

> <i_i_glide_lignum>
533

> <r_i_docking_score>
-5.8533

> <r_i_glide_gscore>
-5.8533

> <r_i_glide_lipo>
-0.576806

> <r_i_glide_hbond>
-1.42037

> <r_i_glide_metal>
0

> <r_i_glide_eburp>
-1.55922

> <r_i_glide_evdw>
-24.8895

> <r_i_glide_ecoul>
-7.71534

> <r_i_glide_erotb>
0.724378

> <r_i_glide_esite>
-0.258575

> <r_i_glide_emodel>
-72.8623

> <r_i_glide_energy>
-32.6049

> <r_i_glide_einternal>
11.4371

> <i_i_glide_confnum>
14

> <i_i_glide_posenum>
477

$$$$
C06676
                    3D
 Structure written by MMmdl.
 18 18  0  0  1  0            999 V2000
    2.4606    0.9025    2.0624 C   0  0  0  0  0  0
    2.2427    2.3550    1.7445 C   0  0  2  0  0  0
    3.6207    0.4728    1.5710 C   0  0  0  0  0  0
    1.2687   -0.1785    2.8917 S   0  0  0  0  0  0
    3.4236    2.6663    1.0077 O   0  0  0  0  0  0
    2.1104    3.2400    3.0038 C   0  0  0  0  0  0
    4.2573    1.6053    0.9036 C   0  0  0  0  0  0
    0.1032   -0.1266    1.9961 O   0  0  0  0  0  0
    1.9558   -1.4789    2.9396 O   0  0  0  0  0  0
    0.6739    3.7126    3.2555 C   0  0  0  0  0  0
    5.3493    1.5985    0.3393 O   0  0  0  0  0  0
    0.1764    4.4770    2.3999 O   0  0  0  0  0  0
    1.3685    2.4498    1.0986 H   0  0  0  0  0  0
    4.0337   -0.5238    1.6157 H   0  0  0  0  0  0
    2.4405    2.6886    3.8841 H   0  0  0  0  0  0
    2.7605    4.1117    2.9164 H   0  0  0  0  0  0
    1.0812    0.4688    4.1990 O   0  5  0  0  0  0
    0.1013    3.3298    4.3000 O   0  5  0  0  0  0
  1  2  1  0  0  0
  1  3  2  0  0  0
  1  4  1  0  0  0
  2  5  1  0  0  0
  2  6  1  0  0  0
  2 13  1  0  0  0
  3  7  1  0  0  0
  3 14  1  0  0  0
  4  8  2  0  0  0
  4  9  2  0  0  0
  4 17  1  0  0  0
  5  7  1  0  0  0
  6 10  1  0  0  0
  6 15  1  0  0  0
  6 16  1  0  0  0
  7 11  2  0  0  0
 10 12  2  0  0  0
 10 18  1  0  0  0
M  CHG  2  17  -1  18  -1
M  END
> <i_ionizer_Ion_state_n>
3

> <i_ionizer_Tot_Q>
-2

> <s_ionizer_Ion_centers>
17_18

> <s_ionizer_Ion_types>
OM_OM

> <s_ionizer_Ion_ctrs_in>
8_13

> <r_ionizer_Ionization_penalty>
0.000592196

> <r_ionizer_Ionization_penalty_charging>
0.000592196

> <r_ionizer_Ionization_penalty_neutral>
0

> <s_st_Chirality_1>
2_R_5_1_6_13

> <s_st_EZ_1>
4_1_3_7_E

> <i_mmod_Serial_Number-OPLS-2005>
886

> <i_i_glide_lignum>
874

> <r_i_docking_score>
-5.8487

> <r_i_glide_gscore>
-5.8487

> <r_i_glide_lipo>
-0.327047

> <r_i_glide_hbond>
-0.994768

> <r_i_glide_metal>
0

> <r_i_glide_eburp>
-2.12001

> <r_i_glide_evdw>
-18.2053

> <r_i_glide_ecoul>
-7.4896

> <r_i_glide_erotb>
0.397244

> <r_i_glide_esite>
-0.598733

> <r_i_glide_emodel>
-58.5437

> <r_i_glide_energy>
-25.6949

> <r_i_glide_einternal>
2.13577

> <i_i_glide_confnum>
2

> <i_i_glide_posenum>
51

$$$$
C00674
                    3D
 Structure written by MMmdl.
 49 52  0  0  1  0            999 V2000
    2.5991    3.1493    1.5126 C   0  0  2  0  0  0
    1.2182    3.3980    2.1863 C   0  0  2  0  0  0
    2.9450    1.6504    1.5161 C   0  0  2  0  0  0
    3.6603    4.1197    2.0285 C   0  0  0  0  0  0
    0.8878    4.9240    2.4026 C   0  0  1  0  0  0
    0.9644    2.5249    3.4544 C   0  0  0  0  0  0
    2.8341    0.9386    2.8651 C   0  0  1  0  0  0
    4.2346    1.1398    0.8669 C   0  0  0  0  0  0
    3.3045    5.5508    1.5979 C   0  0  0  0  0  0
    1.7840    5.8454    1.5102 C   0  0  1  0  0  0
   -0.6233    5.1441    2.0873 C   0  0  0  0  0  0
    1.1208    5.3826    3.8606 C   0  0  0  0  0  0
    1.3693    1.0412    3.3145 C   0  0  0  0  0  0
    3.3021   -0.4473    2.4365 C   0  0  0  0  0  0
    3.8065    1.4312    3.9592 C   0  0  0  0  0  0
    4.2559   -0.3537    1.2459 C   0  0  0  0  0  0
    1.2788    5.9367    0.0557 C   0  0  0  0  0  0
   -0.9452    6.4358    1.3167 C   0  0  0  0  0  0
    2.9676   -1.4999    2.9771 O   0  0  0  0  0  0
   -0.1446    6.4943    0.0154 C   0  0  0  0  0  0
   -0.6200    6.9708   -1.0128 O   0  0  0  0  0  0
    1.6792    6.8603    1.8972 H   0  0  0  0  0  0
    2.4851    3.3945    0.4569 H   0  0  0  0  0  0
    0.5189    3.0143    1.4438 H   0  0  0  0  0  0
    2.1535    1.2207    0.8973 H   0  0  0  0  0  0
    3.7198    4.0743    3.1133 H   0  0  0  0  0  0
    4.6482    3.8601    1.6487 H   0  0  0  0  0  0
    1.5126    2.9338    4.3011 H   0  0  0  0  0  0
   -0.0895    2.5839    3.7268 H   0  0  0  0  0  0
    4.2327    1.2884   -0.2130 H   0  0  0  0  0  0
    5.1071    1.6479    1.2780 H   0  0  0  0  0  0
    3.7688    6.2450    2.2988 H   0  0  0  0  0  0
    3.7640    5.7600    0.6315 H   0  0  0  0  0  0
   -1.0071    4.3190    1.4875 H   0  0  0  0  0  0
   -1.2075    5.1133    3.0074 H   0  0  0  0  0  0
    0.9211    6.4488    3.9705 H   0  0  0  0  0  0
    0.4619    4.8655    4.5583 H   0  0  0  0  0  0
    2.1473    5.2082    4.1811 H   0  0  0  0  0  0
    1.2279    0.5259    4.2649 H   0  0  0  0  0  0
    0.7180    0.5481    2.5919 H   0  0  0  0  0  0
    3.7662    0.7770    4.8307 H   0  0  0  0  0  0
    4.8383    1.4428    3.6071 H   0  0  0  0  0  0
    3.5677    2.4326    4.3085 H   0  0  0  0  0  0
    3.8749   -0.9716    0.4327 H   0  0  0  0  0  0
    5.2569   -0.6961    1.5083 H   0  0  0  0  0  0
    1.9241    6.5937   -0.5279 H   0  0  0  0  0  0
    1.2903    4.9606   -0.4278 H   0  0  0  0  0  0
   -2.0103    6.4842    1.0891 H   0  0  0  0  0  0
   -0.7046    7.3104    1.9213 H   0  0  0  0  0  0
  1  2  1  0  0  0
  1  3  1  0  0  0
  1  4  1  0  0  0
  1 23  1  0  0  0
  2  5  1  0  0  0
  2  6  1  0  0  0
  2 24  1  0  0  0
  3  7  1  0  0  0
  3  8  1  0  0  0
  3 25  1  0  0  0
  4  9  1  0  0  0
  4 26  1  0  0  0
  4 27  1  0  0  0
  5 10  1  0  0  0
  5 11  1  0  0  0
  5 12  1  0  0  0
  6 13  1  0  0  0
  6 28  1  0  0  0
  6 29  1  0  0  0
  7 14  1  0  0  0
  7 15  1  0  0  0
  7 13  1  0  0  0
  8 16  1  0  0  0
  8 30  1  0  0  0
  8 31  1  0  0  0
  9 10  1  0  0  0
  9 32  1  0  0  0
  9 33  1  0  0  0
 10 17  1  0  0  0
 10 22  1  0  0  0
 11 18  1  0  0  0
 11 34  1  0  0  0
 11 35  1  0  0  0
 12 36  1  0  0  0
 12 37  1  0  0  0
 12 38  1  0  0  0
 13 39  1  0  0  0
 13 40  1  0  0  0
 14 19  2  0  0  0
 14 16  1  0  0  0
 15 41  1  0  0  0
 15 42  1  0  0  0
 15 43  1  0  0  0
 16 44  1  0  0  0
 16 45  1  0  0  0
 17 20  1  0  0  0
 17 46  1  0  0  0
 17 47  1  0  0  0
 18 20  1  0  0  0
 18 48  1  0  0  0
 18 49  1  0  0  0
 20 21  2  0  0  0
M  END
> <i_ionizer_Ion_state_n>
0

> <i_ionizer_Tot_Q>
0

> <s_ionizer_Ion_centers>


> <s_ionizer_Ion_types>


> <s_ionizer_Ion_ctrs_in>


> <r_ionizer_Ionization_penalty>
0

> <r_ionizer_Ionization_penalty_charging>
0

> <r_ionizer_Ionization_penalty_neutral>
0

> <s_st_Chirality_1>
10_S_5_17_9_22

> <s_st_Chirality_2>
1_R_3_2_4_23

> <s_st_Chirality_3>
2_R_5_1_6_24

> <s_st_Chirality_4>
3_R_7_1_8_25

> <s_st_Chirality_5>
5_R_2_10_11_12

> <s_st_Chirality_6>
7_R_14_3_13_15

> <i_mmod_Serial_Number-OPLS-2005>
318

> <i_i_glide_lignum>
316

> <r_i_docking_score>
-5.84748

> <r_i_glide_gscore>
-5.84748

> <r_i_glide_lipo>
-1.52177

> <r_i_glide_hbond>
0

> <r_i_glide_metal>
0

> <r_i_glide_eburp>
-1.60277

> <r_i_glide_evdw>
-18.9963

> <r_i_glide_ecoul>
1.32296

> <r_i_glide_erotb>
0

> <r_i_glide_esite>
-1.33553

> <r_i_glide_emodel>
-23.3347

> <r_i_glide_energy>
-17.6733

> <r_i_glide_einternal>
0

> <i_i_glide_confnum>
1

> <i_i_glide_posenum>
121

$$$$
C00108
                    3D
 Structure written by MMmdl.
 16 16  0  0  1  0            999 V2000
    1.3548    2.0567    3.1407 C   0  0  0  0  0  0
    2.3169    1.6460    2.1661 C   0  0  0  0  0  0
    1.0524    1.1605    4.1967 C   0  0  0  0  0  0
    0.6384    3.3942    3.1045 C   0  0  0  0  0  0
    2.9287    0.3782    2.2667 C   0  0  0  0  0  0
    2.6890    2.4193    1.1320 N   0  0  0  0  0  0
    1.6702   -0.1002    4.2889 C   0  0  0  0  0  0
   -0.3012    3.6327    3.8969 O   0  0  0  0  0  0
    2.6091   -0.4934    3.3219 C   0  0  0  0  0  0
    0.3319    1.4302    4.9552 H   0  0  0  0  0  0
    3.6558    0.0661    1.5308 H   0  0  0  0  0  0
    3.1907    2.0325    0.3466 H   0  0  0  0  0  0
    2.1696    3.2741    0.9666 H   0  0  0  0  0  0
    1.4210   -0.7652    5.1026 H   0  0  0  0  0  0
    3.0848   -1.4606    3.3894 H   0  0  0  0  0  0
    1.0149    4.2500    2.2720 O   0  5  0  0  0  0
  1  2  1  0  0  0
  1  3  2  0  0  0
  1  4  1  0  0  0
  2  5  2  0  0  0
  2  6  1  0  0  0
  3  7  1  0  0  0
  3 10  1  0  0  0
  4  8  2  0  0  0
  4 16  1  0  0  0
  5  9  1  0  0  0
  5 11  1  0  0  0
  6 12  1  0  0  0
  6 13  1  0  0  0
  7  9  2  0  0  0
  7 14  1  0  0  0
  9 15  1  0  0  0
M  CHG  1  16  -1
M  END
> <i_ionizer_Ion_state_n>
2

> <i_ionizer_Tot_Q>
-1

> <s_ionizer_Ion_centers>
16

> <s_ionizer_Ion_types>
OM

> <s_ionizer_Ion_ctrs_in>
8

> <r_ionizer_Ionization_penalty>
0.00246284

> <r_ionizer_Ionization_penalty_charging>
0.00059219

> <r_ionizer_Ionization_penalty_neutral>
0.00187065

> <i_mmod_Serial_Number-OPLS-2005>
77

> <i_i_glide_lignum>
76

> <r_i_docking_score>
-5.82958

> <r_i_glide_gscore>
-5.82958

> <r_i_glide_lipo>
-0.598499

> <r_i_glide_hbond>
-0.7

> <r_i_glide_metal>
0

> <r_i_glide_eburp>
-2.5

> <r_i_glide_evdw>
-15.9312

> <r_i_glide_ecoul>
-4.54652

> <r_i_glide_erotb>
0

> <r_i_glide_esite>
-0.301939

> <r_i_glide_emodel>
-42.1347

> <r_i_glide_energy>
-20.4777

> <r_i_glide_einternal>
0.201201

> <i_i_glide_confnum>
1

> <i_i_glide_posenum>
377

$$$$
C00029
                    3D
 Structure written by MMmdl.
 58 60  0  0  1  0            999 V2000
   -2.0606    9.8858    6.1764 C   0  0  2  0  0  0
   -1.3612   11.2036    5.9375 N   0  0  0  0  0  0
   -1.5869    8.9522    5.2487 O   0  0  0  0  0  0
   -3.5735   10.0460    5.9698 C   0  0  1  0  0  0
   -0.5606   11.7540    6.9603 C   0  0  0  0  0  0
   -1.5239   11.9030    4.7487 C   0  0  0  0  0  0
   -2.6727    8.3709    4.5304 C   0  0  1  0  0  0
   -3.7626    9.4427    4.5875 C   0  0  1  0  0  0
   -4.3022    9.3446    6.9598 O   0  0  0  0  0  0
    0.0477   12.9818    6.6985 N   0  0  0  0  0  0
   -0.3941   11.2053    8.0485 O   0  0  0  0  0  0
   -0.9332   13.0967    4.5074 C   0  0  0  0  0  0
   -2.2151    8.0082    3.1113 C   0  0  0  0  0  0
   -5.0657    8.9265    4.3897 O   0  0  0  0  0  0
   -0.0791   13.7153    5.5158 C   0  0  0  0  0  0
   -1.2671    6.9629    3.1719 O   0  0  0  0  0  0
    0.5035   14.7901    5.3908 O   0  0  0  0  0  0
   -1.1503    5.8055    1.9325 P   0  0  0  0  0  0
    0.4410    5.2109    2.0430 O   0  0  0  0  0  0
   -2.0772    4.6962    2.2543 O   0  0  0  0  0  0
    1.2505    4.1360    3.0818 P   0  0  0  0  0  0
    2.0529    3.1021    1.9929 O   0  0  0  0  0  0
    2.2635    4.9069    3.8376 O   0  0  0  0  0  0
    3.2465    2.3956    2.3039 C   0  0  1  0  0  0
    3.0668    1.5748    3.4529 O   0  0  0  0  0  0
    3.6942    1.4216    1.1960 C   0  0  1  0  0  0
    1.9489    0.6849    3.3585 C   0  0  1  0  0  0
    2.5494    0.4569    0.8607 C   0  0  2  0  0  0
    4.2169    2.0939    0.0698 O   0  0  0  0  0  0
    2.1278   -0.2827    2.1522 C   0  0  2  0  0  0
    1.8752   -0.0322    4.7209 C   0  0  0  0  0  0
    3.0177   -0.4908   -0.0827 O   0  0  0  0  0  0
    0.9037   -0.9452    1.8989 O   0  0  0  0  0  0
    0.8254   -0.9767    4.7644 O   0  0  0  0  0  0
   -1.7842    9.5623    7.1812 H   0  0  0  0  0  0
   -3.8713   11.0953    5.9981 H   0  0  0  0  0  0
   -2.1483   11.4922    3.9700 H   0  0  0  0  0  0
   -3.0038    7.4791    5.0654 H   0  0  0  0  0  0
   -3.5685   10.2085    3.8388 H   0  0  0  0  0  0
   -5.2084    9.3326    6.6876 H   0  0  0  0  0  0
    0.6234   13.3767    7.4271 H   0  0  0  0  0  0
   -1.0951   13.5964    3.5631 H   0  0  0  0  0  0
   -3.0624    7.6847    2.5073 H   0  0  0  0  0  0
   -1.7808    8.8765    2.6153 H   0  0  0  0  0  0
   -5.2264    8.9014    3.4560 H   0  0  0  0  0  0
    4.0418    3.1092    2.5222 H   0  0  0  0  0  0
    4.5311    0.8386    1.5848 H   0  0  0  0  0  0
    1.0436    1.2816    3.2302 H   0  0  0  0  0  0
    1.7114    1.0105    0.4361 H   0  0  0  0  0  0
    3.6027    2.7696   -0.1738 H   0  0  0  0  0  0
    2.8868   -1.0240    2.4070 H   0  0  0  0  0  0
    2.8217   -0.5165    4.9622 H   0  0  0  0  0  0
    1.6833    0.6975    5.5083 H   0  0  0  0  0  0
    3.3535   -0.0240   -0.8322 H   0  0  0  0  0  0
    0.5068   -1.1755    2.7239 H   0  0  0  0  0  0
    0.8226   -1.3861    5.6158 H   0  0  0  0  0  0
   -1.2952    6.5200    0.6445 O   0  5  0  0  0  0
    0.2319    3.3502    3.8153 O   0  5  0  0  0  0
  1  2  1  0  0  0
  1  3  1  0  0  0
  1  4  1  0  0  0
  1 35  1  0  0  0
  2  5  1  0  0  0
  2  6  1  0  0  0
  3  7  1  0  0  0
  4  8  1  0  0  0
  4  9  1  0  0  0
  4 36  1  0  0  0
  5 10  1  0  0  0
  5 11  2  0  0  0
  6 12  2  0  0  0
  6 37  1  0  0  0
  7 13  1  0  0  0
  7  8  1  0  0  0
  7 38  1  0  0  0
  8 14  1  0  0  0
  8 39  1  0  0  0
  9 40  1  0  0  0
 10 15  1  0  0  0
 10 41  1  0  0  0
 12 15  1  0  0  0
 12 42  1  0  0  0
 13 16  1  0  0  0
 13 43  1  0  0  0
 13 44  1  0  0  0
 14 45  1  0  0  0
 15 17  2  0  0  0
 16 18  1  0  0  0
 18 19  1  0  0  0
 18 20  2  0  0  0
 18 57  1  0  0  0
 19 21  1  0  0  0
 21 22  1  0  0  0
 21 23  2  0  0  0
 21 58  1  0  0  0
 22 24  1  0  0  0
 24 25  1  0  0  0
 24 26  1  0  0  0
 24 46  1  0  0  0
 25 27  1  0  0  0
 26 28  1  0  0  0
 26 29  1  0  0  0
 26 47  1  0  0  0
 27 30  1  0  0  0
 27 31  1  0  0  0
 27 48  1  0  0  0
 28 32  1  0  0  0
 28 30  1  0  0  0
 28 49  1  0  0  0
 29 50  1  0  0  0
 30 33  1  0  0  0
 30 51  1  0  0  0
 31 34  1  0  0  0
 31 52  1  0  0  0
 31 53  1  0  0  0
 32 54  1  0  0  0
 33 55  1  0  0  0
 34 56  1  0  0  0
M  CHG  2  57  -1  58  -1
M  END
> <i_ionizer_Ion_state_n>
3

> <i_ionizer_Tot_Q>
-2

> <s_ionizer_Ion_centers>
57_58

> <s_ionizer_Ion_types>
OM_OM

> <s_ionizer_Ion_ctrs_in>
20_24

> <r_ionizer_Ionization_penalty>
1.49178e-05

> <r_ionizer_Ionization_penalty_charging>
1.49178e-05

> <r_ionizer_Ionization_penalty_neutral>
0

> <s_st_Chirality_1>
1_R_3_2_4_35

> <s_st_Chirality_2>
4_R_9_1_8_36

> <s_st_Chirality_3>
7_R_3_8_13_38

> <s_st_Chirality_4>
8_R_14_4_7_39

> <s_st_Chirality_5>
26_R_29_24_28_47

> <s_st_Chirality_6>
27_R_25_30_31_48

> <s_st_Chirality_7>
28_S_32_26_30_49

> <s_st_Chirality_8>
30_R_33_28_27_51

> <s_st_Chirality_9>
24_R_22_25_26_46

> <i_mmod_Serial_Number-OPLS-2005>
22

> <i_i_glide_lignum>
22

> <r_i_docking_score>
-5.82414

> <r_i_glide_gscore>
-5.82414

> <r_i_glide_lipo>
-0.810246

> <r_i_glide_hbond>
-2.41931

> <r_i_glide_metal>
0

> <r_i_glide_eburp>
0.41931

> <r_i_glide_evdw>
-26.2084

> <r_i_glide_ecoul>
-20.8317

> <r_i_glide_erotb>
0.576209

> <r_i_glide_esite>
0.589738

> <r_i_glide_emodel>
-100.726

> <r_i_glide_energy>
-47.0401

> <r_i_glide_einternal>
7.29151

> <i_i_glide_confnum>
51

> <i_i_glide_posenum>
575

$$$$
C02571
                    3D
 Structure written by MMmdl.
 31 30  0  0  1  0            999 V2000
    2.9267    1.4629    2.1145 C   0  0  0  0  0  0
    1.9410    2.1596    3.0871 C   0  0  1  0  0  0
    4.0898    0.7681    2.7367 N   0  3  0  0  0  0
    0.7410    2.7961    2.3454 C   0  0  0  0  0  0
    1.4738    1.1961    4.0293 O   0  0  0  0  0  0
    3.5811   -0.4353    3.4317 C   0  0  0  0  0  0
    5.0621    0.3331    1.7069 C   0  0  0  0  0  0
    4.7727    1.6249    3.7326 C   0  0  0  0  0  0
   -0.1006    3.7097    3.2394 C   0  0  0  0  0  0
    1.0783   -0.0247    3.6245 C   0  0  0  0  0  0
   -1.3378    3.6979    3.0611 O   0  0  0  0  0  0
    0.8988   -0.9900    4.7879 C   0  0  0  0  0  0
    0.8660   -0.3702    2.4624 O   0  0  0  0  0  0
    2.3765    0.7610    1.4858 H   0  0  0  0  0  0
    3.3306    2.2150    1.4351 H   0  0  0  0  0  0
    2.4603    2.9650    3.6048 H   0  0  0  0  0  0
    1.0996    3.3803    1.4975 H   0  0  0  0  0  0
    0.0993    2.0170    1.9338 H   0  0  0  0  0  0
    4.3956   -0.9888    3.9009 H   0  0  0  0  0  0
    2.8676   -0.1610    4.2097 H   0  0  0  0  0  0
    3.0778   -1.1039    2.7321 H   0  0  0  0  0  0
    4.5718   -0.2675    0.9399 H   0  0  0  0  0  0
    5.8493   -0.2734    2.1564 H   0  0  0  0  0  0
    5.5427    1.1816    1.2210 H   0  0  0  0  0  0
    5.5419    1.0617    4.2623 H   0  0  0  0  0  0
    5.2600    2.4748    3.2550 H   0  0  0  0  0  0
    4.0631    2.0044    4.4688 H   0  0  0  0  0  0
    0.5981   -1.9736    4.4267 H   0  0  0  0  0  0
    1.8341   -1.0947    5.3380 H   0  0  0  0  0  0
    0.1329   -0.6222    5.4707 H   0  0  0  0  0  0
    0.5110    4.3993    4.0841 O   0  5  0  0  0  0
  1  2  1  0  0  0
  1  3  1  0  0  0
  1 14  1  0  0  0
  1 15  1  0  0  0
  2  4  1  0  0  0
  2  5  1  0  0  0
  2 16  1  0  0  0
  3  6  1  0  0  0
  3  7  1  0  0  0
  3  8  1  0  0  0
  4  9  1  0  0  0
  4 17  1  0  0  0
  4 18  1  0  0  0
  5 10  1  0  0  0
  6 19  1  0  0  0
  6 20  1  0  0  0
  6 21  1  0  0  0
  7 22  1  0  0  0
  7 23  1  0  0  0
  7 24  1  0  0  0
  8 25  1  0  0  0
  8 26  1  0  0  0
  8 27  1  0  0  0
  9 11  2  0  0  0
  9 31  1  0  0  0
 10 12  1  0  0  0
 10 13  2  0  0  0
 12 28  1  0  0  0
 12 29  1  0  0  0
 12 30  1  0  0  0
M  CHG  2   3   1  31  -1
M  END
> <i_ionizer_Ion_state_n>
1

> <i_ionizer_Tot_Q>
0

> <s_ionizer_Ion_centers>
31

> <s_ionizer_Ion_types>
OM

> <s_ionizer_Ion_ctrs_in>
11

> <r_ionizer_Ionization_penalty>
0.00059219

> <r_ionizer_Ionization_penalty_charging>
0.00059219

> <r_ionizer_Ionization_penalty_neutral>
0

> <s_st_Chirality_1>
2_R_5_1_4_16

> <i_mmod_Serial_Number-OPLS-2005>
498

> <i_i_glide_lignum>
493

> <r_i_docking_score>
-5.81886

> <r_i_glide_gscore>
-5.81886

> <r_i_glide_lipo>
-0.556761

> <r_i_glide_hbond>
-1.49867

> <r_i_glide_metal>
0

> <r_i_glide_eburp>
-2.64818

> <r_i_glide_evdw>
-17

> <r_i_glide_ecoul>
-6.75624

> <r_i_glide_erotb>
1.36296

> <r_i_glide_esite>
-0.44259

> <r_i_glide_emodel>
-47.6845

> <r_i_glide_energy>
-23.7562

> <r_i_glide_einternal>
8.06262

> <i_i_glide_confnum>
20

> <i_i_glide_posenum>
871

$$$$
C00655
                    3D
 Structure written by MMmdl.
 36 38  0  0  1  0            999 V2000
    1.3335    4.4553    2.1209 C   0  0  0  0  0  0
    2.2209    3.4904    2.5172 N   0  0  0  0  0  0
    1.9474    5.3298    1.2716 C   0  0  0  0  0  0
   -0.0292    4.6250    2.4461 N   0  0  0  0  0  0
    2.0215    2.3073    3.4098 C   0  0  2  0  0  0
    3.3607    3.8632    1.8578 C   0  0  0  0  0  0
    1.1800    6.4690    0.6895 C   0  0  0  0  0  0
   -0.7582    5.6506    1.9335 C   0  0  0  0  0  0
    3.2556    2.0022    4.0413 O   0  0  0  0  0  0
    1.6920    1.0942    2.5481 C   0  0  1  0  0  0
   -0.1178    6.5140    1.0878 N   0  0  0  0  0  0
    1.6958    7.2789   -0.0772 O   0  0  0  0  0  0
   -1.9433    5.7967    2.2178 O   0  0  0  0  0  0
    3.5611    0.6208    3.9474 C   0  0  1  0  0  0
    2.3484   -0.0514    3.2861 C   0  0  1  0  0  0
    0.2956    0.9043    2.4305 O   0  0  0  0  0  0
    4.8676    0.3677    3.1727 C   0  0  0  0  0  0
    1.4859   -0.6739    4.2183 O   0  0  0  0  0  0
    4.8984    1.1178    1.9695 O   0  0  0  0  0  0
    5.5291    0.2467    0.5334 P   0  0  0  0  0  0
    6.8827   -0.3037    1.0392 O   0  0  0  0  0  0
   -0.4666    3.9639    3.0720 H   0  0  0  0  0  0
    1.2215    2.6050    4.0889 H   0  0  0  0  0  0
    4.2782    3.3087    1.9381 H   0  0  0  0  0  0
    2.1053    1.2023    1.5441 H   0  0  0  0  0  0
   -0.6741    7.2699    0.7165 H   0  0  0  0  0  0
    3.6515    0.2222    4.9593 H   0  0  0  0  0  0
    2.6903   -0.7968    2.5711 H   0  0  0  0  0  0
   -0.0445    0.7571    3.3012 H   0  0  0  0  0  0
    5.7298    0.6082    3.7939 H   0  0  0  0  0  0
    4.9633   -0.6916    2.9352 H   0  0  0  0  0  0
    2.0251   -1.2116    4.7826 H   0  0  0  0  0  0
    3.2528    4.9542    1.0969 N   0  3  0  0  0  0
    3.9650    5.3829    0.5190 H   0  0  0  0  0  0
    4.4228   -0.8047    0.2999 O   0  5  0  0  0  0
    5.6135    1.3902   -0.4999 O   0  5  0  0  0  0
  1  2  1  0  0  0
  1  3  2  0  0  0
  1  4  1  0  0  0
  2  5  1  0  0  0
  2  6  1  0  0  0
  3  7  1  0  0  0
  3 33  1  0  0  0
  4  8  1  0  0  0
  4 22  1  0  0  0
  5  9  1  0  0  0
  5 10  1  0  0  0
  5 23  1  0  0  0
  6 24  1  0  0  0
  6 33  2  0  0  0
  7 11  1  0  0  0
  7 12  2  0  0  0
  8 13  2  0  0  0
  8 11  1  0  0  0
  9 14  1  0  0  0
 10 15  1  0  0  0
 10 16  1  0  0  0
 10 25  1  0  0  0
 11 26  1  0  0  0
 14 17  1  0  0  0
 14 15  1  0  0  0
 14 27  1  0  0  0
 15 18  1  0  0  0
 15 28  1  0  0  0
 16 29  1  0  0  0
 17 19  1  0  0  0
 17 30  1  0  0  0
 17 31  1  0  0  0
 18 32  1  0  0  0
 19 20  1  0  0  0
 20 21  2  0  0  0
 20 35  1  0  0  0
 20 36  1  0  0  0
 33 34  1  0  0  0
M  CHG  3  33   1  35  -1  36  -1
M  END
> <i_ionizer_Ion_state_n>
7

> <i_ionizer_Tot_Q>
-1

> <s_ionizer_Ion_centers>
33_35_36

> <s_ionizer_Ion_types>
N4_OM_OM

> <s_ionizer_Ion_ctrs_in>
7_22_23

> <r_ionizer_Ionization_penalty>
0.410695

> <r_ionizer_Ionization_penalty_charging>
0.410695

> <r_ionizer_Ionization_penalty_neutral>
0

> <s_st_Chirality_1>
5_R_9_2_10_23

> <s_st_Chirality_2>
10_R_16_5_15_25

> <s_st_Chirality_3>
14_R_9_15_17_27

> <s_st_Chirality_4>
15_R_18_10_14_28

> <i_mmod_Serial_Number-OPLS-2005>
310

> <i_i_glide_lignum>
308

> <r_i_docking_score>
-5.81741

> <r_i_glide_gscore>
-5.81741

> <r_i_glide_lipo>
-0.611767

> <r_i_glide_hbond>
-0.244389

> <r_i_glide_metal>
0

> <r_i_glide_eburp>
-1.03635

> <r_i_glide_evdw>
-35.9427

> <r_i_glide_ecoul>
-5.08821

> <r_i_glide_erotb>
0.499298

> <r_i_glide_esite>
-1.03997

> <r_i_glide_emodel>
-67.4074

> <r_i_glide_energy>
-41.0309

> <r_i_glide_einternal>
4.71531

> <i_i_glide_confnum>
22

> <i_i_glide_posenum>
215

$$$$
C00847
                    3D
 Structure written by MMmdl.
 21 21  0  0  1  0            999 V2000
    1.8729    3.1664    3.0015 C   0  0  0  0  0  0
    2.9807    3.6001    2.2131 C   0  0  0  0  0  0
    1.9234    1.8536    3.5518 C   0  0  0  0  0  0
    0.6782    4.0619    3.2441 C   0  0  0  0  0  0
    4.0474    2.6942    2.0140 C   0  0  0  0  0  0
    3.0486    4.9995    1.5981 C   0  0  0  0  0  0
    3.0540    1.0481    3.2895 C   0  0  0  0  0  0
    0.9001    1.3372    4.3023 O   0  0  0  0  0  0
    0.6925    5.2275    2.7882 O   0  0  0  0  0  0
    4.0927    1.4539    2.5353 N   0  0  0  0  0  0
    2.4970    5.1025    0.3007 O   0  0  0  0  0  0
    3.1617   -0.3601    3.8454 C   0  0  0  0  0  0
    4.9073    2.9625    1.4188 H   0  0  0  0  0  0
    2.5267    5.7010    2.2496 H   0  0  0  0  0  0
    4.0870    5.3248    1.5289 H   0  0  0  0  0  0
    1.0609    0.4577    4.6060 H   0  0  0  0  0  0
    3.0632    4.6435   -0.3009 H   0  0  0  0  0  0
    4.1027   -0.8325    3.5604 H   0  0  0  0  0  0
    3.1105   -0.3426    4.9343 H   0  0  0  0  0  0
    2.3468   -0.9790    3.4694 H   0  0  0  0  0  0
   -0.2915    3.6199    3.9000 O   0  5  0  0  0  0
  1  2  1  0  0  0
  1  3  2  0  0  0
  1  4  1  0  0  0
  2  5  2  0  0  0
  2  6  1  0  0  0
  3  7  1  0  0  0
  3  8  1  0  0  0
  4  9  2  0  0  0
  4 21  1  0  0  0
  5 10  1  0  0  0
  5 13  1  0  0  0
  6 11  1  0  0  0
  6 14  1  0  0  0
  6 15  1  0  0  0
  7 12  1  0  0  0
  7 10  2  0  0  0
  8 16  1  0  0  0
 11 17  1  0  0  0
 12 18  1  0  0  0
 12 19  1  0  0  0
 12 20  1  0  0  0
M  CHG  1  21  -1
M  END
> <i_ionizer_Ion_state_n>
1

> <i_ionizer_Tot_Q>
-1

> <s_ionizer_Ion_centers>
21

> <s_ionizer_Ion_types>
OM

> <s_ionizer_Ion_ctrs_in>
9

> <r_ionizer_Ionization_penalty>
0.0190381

> <r_ionizer_Ionization_penalty_charging>
0.00059219

> <r_ionizer_Ionization_penalty_neutral>
0.0184459

> <i_mmod_Serial_Number-OPLS-2005>
346

> <i_i_glide_lignum>
343

> <r_i_docking_score>
-5.79989

> <r_i_glide_gscore>
-5.79989

> <r_i_glide_lipo>
-0.592024

> <r_i_glide_hbond>
-0.990882

> <r_i_glide_metal>
0

> <r_i_glide_eburp>
-2.4079

> <r_i_glide_evdw>
-18.606

> <r_i_glide_ecoul>
-6.8844

> <r_i_glide_erotb>
0.544779

> <r_i_glide_esite>
-0.176946

> <r_i_glide_emodel>
-49.8676

> <r_i_glide_energy>
-25.4904

> <r_i_glide_einternal>
0.374298

> <i_i_glide_confnum>
4

> <i_i_glide_posenum>
959

$$$$
C05983
                    3D
 Structure written by MMmdl.
 44 46  0  0  1  0            999 V2000
    4.1251    0.4625    0.6000 N   0  0  0  0  0  0
    4.9691   -0.4296   -0.0269 C   0  0  0  0  0  0
    2.7019    0.1972    0.9960 C   0  0  2  0  0  0
    4.8687    1.6186    0.7291 C   0  0  0  0  0  0
    6.2054    0.2522   -0.1907 C   0  0  0  0  0  0
    4.7065   -1.7129   -0.4111 N   0  0  0  0  0  0
    2.0386    1.4305    1.0729 O   0  0  0  0  0  0
    2.6655   -0.4045    2.4051 C   0  0  1  0  0  0
    6.1002    1.5461    0.2992 N   0  0  0  0  0  0
    7.2457   -0.4953   -0.7964 C   0  0  0  0  0  0
    5.7763   -2.2876   -0.9683 C   0  0  0  0  0  0
    1.8056    1.8130    2.4329 C   0  0  1  0  0  0
    2.6675    0.8516    3.2526 C   0  0  1  0  0  0
    1.5113   -1.2005    2.5952 O   0  0  0  0  0  0
    6.9922   -1.7700   -1.1734 N   0  0  0  0  0  0
    8.4706    0.0006   -1.0148 N   0  0  0  0  0  0
    2.1438    3.2982    2.6321 C   0  0  0  0  0  0
    2.1802    0.6273    4.5617 O   0  0  0  0  0  0
    1.2299    4.1149    1.9266 O   0  0  0  0  0  0
    0.0287    4.9883    2.7576 P   0  0  0  0  0  0
   -0.4839    6.1288    1.5975 O   0  0  0  0  0  0
   -1.1016    4.0693    3.0162 O   0  0  0  0  0  0
   -1.7084    6.6657    1.5840 C   0  0  0  0  0  0
   -1.6841    8.1342    1.1557 C   0  0  0  0  0  0
   -2.7526    6.0943    1.9001 O   0  0  0  0  0  0
   -1.0052    8.3569   -0.2050 C   0  0  0  0  0  0
    2.3145   -0.4491    0.2073 H   0  0  0  0  0  0
    4.4771    2.5287    1.1565 H   0  0  0  0  0  0
    3.5387   -1.0249    2.6060 H   0  0  0  0  0  0
    5.6415   -3.3083   -1.2950 H   0  0  0  0  0  0
    0.7525    1.6352    2.6564 H   0  0  0  0  0  0
    3.6872    1.2277    3.3065 H   0  0  0  0  0  0
    1.4544   -1.4041    3.5172 H   0  0  0  0  0  0
    9.1758   -0.5753   -1.4504 H   0  0  0  0  0  0
    8.6812    0.9502   -0.7430 H   0  0  0  0  0  0
    2.0895    3.5562    3.6887 H   0  0  0  0  0  0
    3.1616    3.5121    2.3056 H   0  0  0  0  0  0
    2.7212   -0.0397    4.9609 H   0  0  0  0  0  0
   -2.7105    8.5000    1.1130 H   0  0  0  0  0  0
   -1.1749    8.7128    1.9265 H   0  0  0  0  0  0
   -1.0681    9.4046   -0.4998 H   0  0  0  0  0  0
    0.0503    8.0847   -0.1744 H   0  0  0  0  0  0
   -1.4829    7.7677   -0.9888 H   0  0  0  0  0  0
    0.6674    5.7006    3.8866 O   0  5  0  0  0  0
  1  2  1  0  0  0
  1  3  1  0  0  0
  1  4  1  0  0  0
  2  5  2  0  0  0
  2  6  1  0  0  0
  3  7  1  0  0  0
  3  8  1  0  0  0
  3 27  1  0  0  0
  4  9  2  0  0  0
  4 28  1  0  0  0
  5 10  1  0  0  0
  5  9  1  0  0  0
  6 11  2  0  0  0
  7 12  1  0  0  0
  8 13  1  0  0  0
  8 14  1  0  0  0
  8 29  1  0  0  0
 10 15  2  0  0  0
 10 16  1  0  0  0
 11 15  1  0  0  0
 11 30  1  0  0  0
 12 17  1  0  0  0
 12 13  1  0  0  0
 12 31  1  0  0  0
 13 18  1  0  0  0
 13 32  1  0  0  0
 14 33  1  0  0  0
 16 34  1  0  0  0
 16 35  1  0  0  0
 17 19  1  0  0  0
 17 36  1  0  0  0
 17 37  1  0  0  0
 18 38  1  0  0  0
 19 20  1  0  0  0
 20 21  1  0  0  0
 20 22  2  0  0  0
 20 44  1  0  0  0
 21 23  1  0  0  0
 23 24  1  0  0  0
 23 25  2  0  0  0
 24 26  1  0  0  0
 24 39  1  0  0  0
 24 40  1  0  0  0
 26 41  1  0  0  0
 26 42  1  0  0  0
 26 43  1  0  0  0
M  CHG  1  44  -1
M  END
> <i_ionizer_Ion_state_n>
2

> <i_ionizer_Tot_Q>
-1

> <s_ionizer_Ion_centers>
44

> <s_ionizer_Ion_types>
OM

> <s_ionizer_Ion_ctrs_in>
22

> <r_ionizer_Ionization_penalty>
2.61947e-05

> <r_ionizer_Ionization_penalty_charging>
7.45891e-06

> <r_ionizer_Ionization_penalty_neutral>
1.87357e-05

> <s_st_Chirality_1>
3_R_7_1_8_27

> <s_st_Chirality_2>
8_R_14_3_13_29

> <s_st_Chirality_3>
12_R_7_13_17_31

> <s_st_Chirality_4>
13_R_18_8_12_32

> <i_mmod_Serial_Number-OPLS-2005>
839

> <i_i_glide_lignum>
827

> <r_i_docking_score>
-5.79573

> <r_i_glide_gscore>
-5.79573

> <r_i_glide_lipo>
-0.811027

> <r_i_glide_hbond>
-1.24204

> <r_i_glide_metal>
0

> <r_i_glide_eburp>
-0.740281

> <r_i_glide_evdw>
-33.0027

> <r_i_glide_ecoul>
-7.62454

> <r_i_glide_erotb>
0.831437

> <r_i_glide_esite>
-0.431145

> <r_i_glide_emodel>
-78.7797

> <r_i_glide_energy>
-40.6272

> <r_i_glide_einternal>
8.03447

> <i_i_glide_confnum>
153

> <i_i_glide_posenum>
938

$$$$
C00311
                    3D
 Structure written by MMmdl.
 18 17  0  0  1  0            999 V2000
    2.3204    0.7867    2.3341 C   0  0  1  0  0  0
    3.2645    0.6790    1.0932 C   0  0  2  0  0  0
    1.5788    2.1569    2.3614 C   0  0  0  0  0  0
    1.2909   -0.3667    2.3627 C   0  0  0  0  0  0
    4.2931    1.8197    0.9693 C   0  0  0  0  0  0
    2.5018    0.6629   -0.0995 O   0  0  0  0  0  0
    0.7889    2.4179    3.6521 C   0  0  0  0  0  0
    1.7002   -1.5000    2.6997 O   0  0  0  0  0  0
    5.2218    1.6978    0.1394 O   0  0  0  0  0  0
    0.0970    3.4585    3.7130 O   0  0  0  0  0  0
    2.9357    0.7051    3.2324 H   0  0  0  0  0  0
    3.8095   -0.2651    1.1418 H   0  0  0  0  0  0
    2.2925    2.9746    2.2659 H   0  0  0  0  0  0
    0.9098    2.2401    1.5033 H   0  0  0  0  0  0
    3.0788    0.4048   -0.8016 H   0  0  0  0  0  0
    0.1086   -0.0925    2.0550 O   0  5  0  0  0  0
    4.1651    2.7750    1.7672 O   0  5  0  0  0  0
    0.8534    1.5418    4.5428 O   0  5  0  0  0  0
  1  2  1  0  0  0
  1  3  1  0  0  0
  1  4  1  0  0  0
  1 11  1  0  0  0
  2  5  1  0  0  0
  2  6  1  0  0  0
  2 12  1  0  0  0
  3  7  1  0  0  0
  3 13  1  0  0  0
  3 14  1  0  0  0
  4  8  2  0  0  0
  4 16  1  0  0  0
  5  9  2  0  0  0
  5 17  1  0  0  0
  6 15  1  0  0  0
  7 10  2  0  0  0
  7 18  1  0  0  0
M  CHG  3  16  -1  17  -1  18  -1
M  END
> <i_ionizer_Ion_state_n>
7

> <i_ionizer_Tot_Q>
-3

> <s_ionizer_Ion_centers>
16_17_18

> <s_ionizer_Ion_types>
OM_OM_OM

> <s_ionizer_Ion_ctrs_in>
8_10_12

> <r_ionizer_Ionization_penalty>
0.00177657

> <r_ionizer_Ionization_penalty_charging>
0.00177657

> <r_ionizer_Ionization_penalty_neutral>
0

> <s_st_Chirality_1>
1_R_4_2_3_11

> <s_st_Chirality_2>
2_R_6_5_1_12

> <i_mmod_Serial_Number-OPLS-2005>
186

> <i_i_glide_lignum>
184

> <r_i_docking_score>
-5.79097

> <r_i_glide_gscore>
-5.79097

> <r_i_glide_lipo>
-0.227916

> <r_i_glide_hbond>
-1.45305

> <r_i_glide_metal>
0

> <r_i_glide_eburp>
-2.35528

> <r_i_glide_evdw>
-12.7292

> <r_i_glide_ecoul>
-9.8913

> <r_i_glide_erotb>
1.02433

> <r_i_glide_esite>
-0.771579

> <r_i_glide_emodel>
-57.6939

> <r_i_glide_energy>
-22.6205

> <r_i_glide_einternal>
7.12548

> <i_i_glide_confnum>
7

> <i_i_glide_posenum>
329

$$$$
C00472
                    3D
 Structure written by MMmdl.
 12 12  0  0  1  0            999 V2000
    3.4625    0.7180    3.8992 C   0  0  0  0  0  0
    2.5361   -0.2606    4.5059 C   0  0  0  0  0  0
    3.1253    1.1918    2.5405 C   0  0  0  0  0  0
    4.4614    1.1170    4.4935 O   0  0  0  0  0  0
    1.4380   -0.6992    3.8525 C   0  0  0  0  0  0
    2.0272    0.7532    1.8871 C   0  0  0  0  0  0
    1.1008   -0.2254    2.4939 C   0  0  0  0  0  0
    0.1019   -0.6245    1.8996 O   0  0  0  0  0  0
    2.7599   -0.6228    5.4986 H   0  0  0  0  0  0
    3.7865    1.9076    2.0744 H   0  0  0  0  0  0
    0.7768   -1.4150    4.3186 H   0  0  0  0  0  0
    1.8034    1.1154    0.8944 H   0  0  0  0  0  0
  1  2  1  0  0  0
  1  3  1  0  0  0
  1  4  2  0  0  0
  2  5  2  0  0  0
  2  9  1  0  0  0
  3  6  2  0  0  0
  3 10  1  0  0  0
  5  7  1  0  0  0
  5 11  1  0  0  0
  6  7  1  0  0  0
  6 12  1  0  0  0
  7  8  2  0  0  0
M  END
> <i_ionizer_Ion_state_n>
0

> <i_ionizer_Tot_Q>
0

> <s_ionizer_Ion_centers>


> <s_ionizer_Ion_types>


> <s_ionizer_Ion_ctrs_in>


> <r_ionizer_Ionization_penalty>
0

> <r_ionizer_Ionization_penalty_charging>
0

> <r_ionizer_Ionization_penalty_neutral>
0

> <i_mmod_Serial_Number-OPLS-2005>
251

> <i_i_glide_lignum>
249

> <r_i_docking_score>
-5.78849

> <r_i_glide_gscore>
-5.78849

> <r_i_glide_lipo>
-0.419635

> <r_i_glide_hbond>
-0.296243

> <r_i_glide_metal>
0

> <r_i_glide_eburp>
-2.5

> <r_i_glide_evdw>
-18.9166

> <r_i_glide_ecoul>
-2.55393

> <r_i_glide_erotb>
0

> <r_i_glide_esite>
-0.803897

> <r_i_glide_emodel>
-25.894

> <r_i_glide_energy>
-21.4705

> <r_i_glide_einternal>
0

> <i_i_glide_confnum>
1

> <i_i_glide_posenum>
694

$$$$
C00439
                    3D
 Structure written by MMmdl.
 21 20  0  0  1  0            999 V2000
    1.7574    0.6679    3.7049 C   0  0  2  0  0  0
    2.0442    2.0381    3.0507 C   0  0  0  0  0  0
    2.9911    0.1266    4.2785 N   0  0  0  0  0  0
    1.1477   -0.3742    2.7620 C   0  0  0  0  0  0
    0.8355    2.6853    2.3382 C   0  0  0  0  0  0
    4.1683    0.7614    4.1826 C   0  0  0  0  0  0
    1.7086   -1.4904    2.7011 O   0  0  0  0  0  0
   -0.0458    3.5323    3.2628 C   0  0  0  0  0  0
   -1.2425    3.7091    2.9424 O   0  0  0  0  0  0
    1.0591    0.8255    4.5282 H   0  0  0  0  0  0
    2.4166    2.7169    3.8198 H   0  0  0  0  0  0
    2.8550    1.9291    2.3281 H   0  0  0  0  0  0
    2.9030   -0.6901    4.8648 H   0  0  0  0  0  0
    1.1695    3.3200    1.5170 H   0  0  0  0  0  0
    0.2127    1.9052    1.8985 H   0  0  0  0  0  0
    4.2150    1.7149    3.6685 H   0  0  0  0  0  0
    6.1623    0.7611    4.6129 H   0  0  0  0  0  0
    0.1049   -0.0488    2.1542 O   0  5  0  0  0  0
    5.2948    0.2507    4.7006 N   0  3  0  0  0  0
    5.2829   -0.6336    5.1883 H   0  0  0  0  0  0
    0.4991    3.9870    4.2920 O   0  5  0  0  0  0
  1  2  1  0  0  0
  1  3  1  0  0  0
  1  4  1  0  0  0
  1 10  1  0  0  0
  2  5  1  0  0  0
  2 11  1  0  0  0
  2 12  1  0  0  0
  3  6  1  0  0  0
  3 13  1  0  0  0
  4  7  2  0  0  0
  4 18  1  0  0  0
  5  8  1  0  0  0
  5 14  1  0  0  0
  5 15  1  0  0  0
  6 16  1  0  0  0
  6 19  2  0  0  0
  8  9  2  0  0  0
  8 21  1  0  0  0
 17 19  1  0  0  0
 19 20  1  0  0  0
M  CHG  3  18  -1  19   1  21  -1
M  END
> <i_ionizer_Ion_state_n>
7

> <i_ionizer_Tot_Q>
-1

> <s_ionizer_Ion_centers>
18_19_21

> <s_ionizer_Ion_types>
OM_N4_OM

> <s_ionizer_Ion_ctrs_in>
7_10_11

> <r_ionizer_Ionization_penalty>
0.0011903

> <r_ionizer_Ionization_penalty_charging>
0.0011903

> <r_ionizer_Ionization_penalty_neutral>
0

> <s_st_Chirality_1>
1_S_3_4_2_10

> <i_mmod_Serial_Number-OPLS-2005>
237

> <i_i_glide_lignum>
235

> <r_i_docking_score>
-5.78737

> <r_i_glide_gscore>
-5.78737

> <r_i_glide_lipo>
-0.213265

> <r_i_glide_hbond>
-2.3208

> <r_i_glide_metal>
0

> <r_i_glide_eburp>
-2.87614

> <r_i_glide_evdw>
-9.89746

> <r_i_glide_ecoul>
-16.023

> <r_i_glide_erotb>
2.36808

> <r_i_glide_esite>
-0.351148

> <r_i_glide_emodel>
-66.6681

> <r_i_glide_energy>
-25.9204

> <r_i_glide_einternal>
3.82435

> <i_i_glide_confnum>
7

> <i_i_glide_posenum>
159

$$$$
C00438
                    3D
 Structure written by MMmdl.
 18 17  0  0  1  0            999 V2000
    1.7901    1.0224    3.7735 C   0  0  2  0  0  0
    1.9825    2.4279    3.1426 C   0  0  0  0  0  0
    3.1129    0.4949    4.1079 N   0  0  0  0  0  0
    1.0926    0.0612    2.7908 C   0  0  0  0  0  0
    0.7742    3.3681    3.2510 C   0  0  0  0  0  0
    4.2163    1.2295    4.3052 C   0  0  0  0  0  0
    1.5472   -1.1021    2.7006 O   0  0  0  0  0  0
    0.0867    3.3020    4.2938 O   0  0  0  0  0  0
    5.2370    0.5013    4.7566 N   0  0  0  0  0  0
    4.3036    2.4377    4.0990 O   0  0  0  0  0  0
    1.1863    1.1129    4.6789 H   0  0  0  0  0  0
    2.8276    2.9263    3.6184 H   0  0  0  0  0  0
    2.2471    2.3279    2.0883 H   0  0  0  0  0  0
    3.1641   -0.5002    4.2610 H   0  0  0  0  0  0
    6.1181    0.9566    4.9418 H   0  0  0  0  0  0
    5.1279   -0.4878    4.9201 H   0  0  0  0  0  0
    0.1000    0.4984    2.1683 O   0  5  0  0  0  0
    0.5847    4.1666    2.3071 O   0  5  0  0  0  0
  1  2  1  0  0  0
  1  3  1  0  0  0
  1  4  1  0  0  0
  1 11  1  0  0  0
  2  5  1  0  0  0
  2 12  1  0  0  0
  2 13  1  0  0  0
  3  6  1  0  0  0
  3 14  1  0  0  0
  4  7  2  0  0  0
  4 17  1  0  0  0
  5  8  2  0  0  0
  5 18  1  0  0  0
  6  9  1  0  0  0
  6 10  2  0  0  0
  9 15  1  0  0  0
  9 16  1  0  0  0
M  CHG  2  17  -1  18  -1
M  END
> <i_ionizer_Ion_state_n>
3

> <i_ionizer_Tot_Q>
-2

> <s_ionizer_Ion_centers>
17_18

> <s_ionizer_Ion_types>
OM_OM

> <s_ionizer_Ion_ctrs_in>
7_9

> <r_ionizer_Ionization_penalty>
0.00118438

> <r_ionizer_Ionization_penalty_charging>
0.00118438

> <r_ionizer_Ionization_penalty_neutral>
0

> <s_st_Chirality_1>
1_S_3_4_2_11

> <i_mmod_Serial_Number-OPLS-2005>
236

> <i_i_glide_lignum>
234

> <r_i_docking_score>
-5.78583

> <r_i_glide_gscore>
-5.78583

> <r_i_glide_lipo>
-0.145928

> <r_i_glide_hbond>
-1.2945

> <r_i_glide_metal>
0

> <r_i_glide_eburp>
-2.46883

> <r_i_glide_evdw>
-17.9852

> <r_i_glide_ecoul>
-10.885

> <r_i_glide_erotb>
1.17334

> <r_i_glide_esite>
-0.522584

> <r_i_glide_emodel>
-61.0387

> <r_i_glide_energy>
-28.8702

> <r_i_glide_einternal>
5.0686

> <i_i_glide_confnum>
5

> <i_i_glide_posenum>
405

$$$$
C00051
                    3D
 Structure written by MMmdl.
 36 35  0  0  1  0            999 V2000
    3.0032    4.0396    2.4084 C   0  0  1  0  0  0
    1.7912    3.1761    2.8384 C   0  0  0  0  0  0
    2.7705    5.2936    1.6760 N   0  0  0  0  0  0
    3.9898    4.2869    3.5682 C   0  0  0  0  0  0
    1.9583    1.8537    3.0186 N   0  0  0  0  0  0
    0.7051    3.7314    3.0032 O   0  0  0  0  0  0
    1.6426    5.6622    1.0648 C   0  0  0  0  0  0
    4.5220    2.7128    4.2998 S   0  0  0  0  0  0
    0.9163    0.9081    3.4200 C   0  0  0  0  0  0
    0.5302    6.3987    0.2824 C   0  0  0  0  0  0
    2.3854    6.5752    0.6995 O   0  0  0  0  0  0
    0.8917   -0.3021    2.4856 C   0  0  0  0  0  0
   -0.0448    7.4470    1.2482 C   0  0  0  0  0  0
    1.7037   -1.2248    2.7140 O   0  0  0  0  0  0
   -1.5704    7.6514    1.2308 C   0  0  1  0  0  0
   -2.3225    6.4930    1.9011 C   0  0  0  0  0  0
   -1.7174    5.4061    2.0408 O   0  0  0  0  0  0
    3.5153    3.3987    1.6882 H   0  0  0  0  0  0
    3.5563    5.9184    1.5723 H   0  0  0  0  0  0
    4.8608    4.8494    3.2299 H   0  0  0  0  0  0
    3.5238    4.8718    4.3624 H   0  0  0  0  0  0
    2.8824    1.4709    2.8825 H   0  0  0  0  0  0
    4.9877    2.1803    3.1663 H   0  0  0  0  0  0
    1.0433    0.5610    4.4465 H   0  0  0  0  0  0
   -0.0483    1.4152    3.3806 H   0  0  0  0  0  0
    0.8576    6.9490   -0.6106 H   0  0  0  0  0  0
   -0.2606    5.7043   -0.0166 H   0  0  0  0  0  0
    0.2900    7.2381    2.2669 H   0  0  0  0  0  0
    0.3998    8.4017    0.9733 H   0  0  0  0  0  0
   -1.9051    7.7620    0.1979 H   0  0  0  0  0  0
   -2.8951    9.0642    1.8889 H   0  0  0  0  0  0
   -1.6267    8.8012    2.9103 H   0  0  0  0  0  0
    0.0940   -0.2719    1.5226 O   0  5  0  0  0  0
   -1.9008    8.8990    1.9428 N   0  3  0  0  0  0
   -1.3959    9.6715    1.5300 H   0  0  0  0  0  0
   -3.4903    6.7215    2.2845 O   0  5  0  0  0  0
  1  2  1  0  0  0
  1  3  1  0  0  0
  1  4  1  0  0  0
  1 18  1  0  0  0
  2  5  1  0  0  0
  2  6  2  0  0  0
  3  7  1  0  0  0
  3 19  1  0  0  0
  4  8  1  0  0  0
  4 20  1  0  0  0
  4 21  1  0  0  0
  5  9  1  0  0  0
  5 22  1  0  0  0
  7 10  1  0  0  0
  7 11  2  0  0  0
  8 23  1  0  0  0
  9 12  1  0  0  0
  9 24  1  0  0  0
  9 25  1  0  0  0
 10 13  1  0  0  0
 10 26  1  0  0  0
 10 27  1  0  0  0
 12 14  2  0  0  0
 12 33  1  0  0  0
 13 15  1  0  0  0
 13 28  1  0  0  0
 13 29  1  0  0  0
 15 16  1  0  0  0
 15 30  1  0  0  0
 15 34  1  0  0  0
 16 17  2  0  0  0
 16 36  1  0  0  0
 31 34  1  0  0  0
 32 34  1  0  0  0
 34 35  1  0  0  0
M  CHG  3  33  -1  34   1  36  -1
M  END
> <i_ionizer_Ion_state_n>
14

> <i_ionizer_Tot_Q>
-1

> <s_ionizer_Ion_centers>
33_34_36

> <s_ionizer_Ion_types>
OM_N5_OM

> <s_ionizer_Ion_ctrs_in>
14_18_19

> <r_ionizer_Ionization_penalty>
0.00324236

> <r_ionizer_Ionization_penalty_charging>
0.00137171

> <r_ionizer_Ionization_penalty_neutral>
0.00187065

> <s_st_Chirality_1>
1_R_3_4_2_18

> <s_st_Chirality_2>
15_S_34_16_13_30

> <i_mmod_Serial_Number-OPLS-2005>
35

> <i_i_glide_lignum>
34

> <r_i_docking_score>
-5.78498

> <r_i_glide_gscore>
-5.78498

> <r_i_glide_lipo>
-0.454494

> <r_i_glide_hbond>
-1.37172

> <r_i_glide_metal>
0

> <r_i_glide_eburp>
-1.86728

> <r_i_glide_evdw>
-31.4954

> <r_i_glide_ecoul>
-11.8632

> <r_i_glide_erotb>
2.02469

> <r_i_glide_esite>
-0.410231

> <r_i_glide_emodel>
-96.8499

> <r_i_glide_energy>
-43.3586

> <r_i_glide_einternal>
11.1888

> <i_i_glide_confnum>
262

> <i_i_glide_posenum>
911

$$$$
C04677
                    3D
 Structure written by MMmdl.
 36 37  0  0  1  0            999 V2000
    1.9368    5.7984    1.3032 N   0  0  0  0  0  0
    3.3052    5.1923    1.3916 C   0  0  2  0  0  0
    0.7200    5.2993    1.7072 C   0  0  0  0  0  0
    1.6078    7.0057    0.7714 C   0  0  0  0  0  0
    3.2787    3.9559    0.7333 O   0  0  0  0  0  0
    3.6340    4.9153    2.8619 C   0  0  1  0  0  0
   -0.2783    6.2115    1.3894 C   0  0  0  0  0  0
    0.5848    4.0995    2.2997 N   0  0  0  0  0  0
    3.4034    2.8743    1.6606 C   0  0  1  0  0  0
    3.1001    3.5039    3.0240 C   0  0  1  0  0  0
    5.0246    5.0122    3.1016 O   0  0  0  0  0  0
   -1.7572    6.0733    1.6342 C   0  0  0  0  0  0
    2.4937    1.7033    1.2426 C   0  0  0  0  0  0
    3.6981    2.8128    4.1032 O   0  0  0  0  0  0
   -2.4915    7.1770    1.4639 N   0  0  0  0  0  0
   -2.2604    5.0015    1.9638 O   0  0  0  0  0  0
    2.7047    0.5700    2.0688 O   0  0  0  0  0  0
    1.2351   -0.0953    2.8541 P   0  0  0  0  0  0
    1.6999   -1.4998    3.3034 O   0  0  0  0  0  0
    3.9586    5.9149    0.9013 H   0  0  0  0  0  0
    2.3404    7.6720    0.3547 H   0  0  0  0  0  0
    3.1271    5.6194    3.5233 H   0  0  0  0  0  0
   -0.3251    3.7561    2.5776 H   0  0  0  0  0  0
    1.3737    3.4928    2.4731 H   0  0  0  0  0  0
    4.4450    2.5490    1.6504 H   0  0  0  0  0  0
    2.0266    3.5573    3.1932 H   0  0  0  0  0  0
    5.3878    5.5833    2.4401 H   0  0  0  0  0  0
    1.4474    2.0055    1.2737 H   0  0  0  0  0  0
    2.6888    1.4291    0.2060 H   0  0  0  0  0  0
    4.6248    2.7480    3.9157 H   0  0  0  0  0  0
   -3.4891    7.1292    1.6136 H   0  0  0  0  0  0
   -2.0662    8.0456    1.1793 H   0  0  0  0  0  0
    0.3137    7.2980    0.7888 N   0  3  0  0  0  0
   -0.1230    8.1342    0.4236 H   0  0  0  0  0  0
    1.0000    0.9269    3.9870 O   0  5  0  0  0  0
    0.2272   -0.0638    1.6856 O   0  5  0  0  0  0
  1  2  1  0  0  0
  1  3  1  0  0  0
  1  4  1  0  0  0
  2  5  1  0  0  0
  2  6  1  0  0  0
  2 20  1  0  0  0
  3  7  2  0  0  0
  3  8  1  0  0  0
  4 21  1  0  0  0
  4 33  2  0  0  0
  5  9  1  0  0  0
  6 10  1  0  0  0
  6 11  1  0  0  0
  6 22  1  0  0  0
  7 12  1  0  0  0
  7 33  1  0  0  0
  8 23  1  0  0  0
  8 24  1  0  0  0
  9 13  1  0  0  0
  9 10  1  0  0  0
  9 25  1  0  0  0
 10 14  1  0  0  0
 10 26  1  0  0  0
 11 27  1  0  0  0
 12 15  1  0  0  0
 12 16  2  0  0  0
 13 17  1  0  0  0
 13 28  1  0  0  0
 13 29  1  0  0  0
 14 30  1  0  0  0
 15 31  1  0  0  0
 15 32  1  0  0  0
 17 18  1  0  0  0
 18 19  2  0  0  0
 18 35  1  0  0  0
 18 36  1  0  0  0
 33 34  1  0  0  0
M  CHG  3  33   1  35  -1  36  -1
M  END
> <i_ionizer_Ion_state_n>
7

> <i_ionizer_Tot_Q>
-1

> <s_ionizer_Ion_centers>
33_35_36

> <s_ionizer_Ion_types>
N4_OM_OM

> <s_ionizer_Ion_ctrs_in>
9_20_21

> <r_ionizer_Ionization_penalty>
0.410695

> <r_ionizer_Ionization_penalty_charging>
0.410695

> <r_ionizer_Ionization_penalty_neutral>
0

> <s_st_Chirality_1>
2_R_5_1_6_20

> <s_st_Chirality_2>
6_R_11_2_10_22

> <s_st_Chirality_3>
9_R_5_10_13_25

> <s_st_Chirality_4>
10_R_14_6_9_26

> <i_mmod_Serial_Number-OPLS-2005>
607

> <i_i_glide_lignum>
601

> <r_i_docking_score>
-5.77409

> <r_i_glide_gscore>
-5.77409

> <r_i_glide_lipo>
-0.513254

> <r_i_glide_hbond>
-0.998389

> <r_i_glide_metal>
0

> <r_i_glide_eburp>
-1.23327

> <r_i_glide_evdw>
-27.8708

> <r_i_glide_ecoul>
-12.564

> <r_i_glide_erotb>
0.569763

> <r_i_glide_esite>
-0.11287

> <r_i_glide_emodel>
-85.4183

> <r_i_glide_energy>
-40.4348

> <r_i_glide_einternal>
11.604

> <i_i_glide_confnum>
13

> <i_i_glide_posenum>
74

$$$$
C00135
                    3D
 Structure written by MMmdl.
 21 21  0  0  1  0            999 V2000
    3.9698    0.6859    2.4129 C   0  0  0  0  0  0
    3.6575    1.2902    3.7623 C   0  0  0  0  0  0
    3.2062    0.6049    1.2626 C   0  0  0  0  0  0
    2.3772    0.7435    4.4307 C   0  0  1  0  0  0
    3.9736   -0.0290    0.2992 N   0  0  0  0  0  0
    5.1483   -0.3043    0.8624 C   0  0  0  0  0  0
    1.1284    1.0085    3.5799 C   0  0  0  0  0  0
    0.8296    0.1568    2.7134 O   0  0  0  0  0  0
    4.5170    1.1230    4.4136 H   0  0  0  0  0  0
    3.5815    2.3711    3.6377 H   0  0  0  0  0  0
    2.2041    0.9441    1.0437 H   0  0  0  0  0  0
    2.2568    1.2315    5.3997 H   0  0  0  0  0  0
    3.6998   -0.2296   -0.6525 H   0  0  0  0  0  0
    5.9653   -0.7938    0.3518 H   0  0  0  0  0  0
    1.6664   -1.0173    5.1755 H   0  0  0  0  0  0
    2.5848   -1.1897    3.8208 H   0  0  0  0  0  0
    5.1950    0.1000    2.1306 N   0  3  0  0  0  0
    5.9811    0.0082    2.7585 H   0  0  0  0  0  0
    2.4992   -0.7000    4.7002 N   0  3  0  0  0  0
    3.3099   -0.8784    5.2747 H   0  0  0  0  0  0
    0.5016    2.0665    3.8026 O   0  5  0  0  0  0
  1  2  1  0  0  0
  1  3  2  0  0  0
  1 17  1  0  0  0
  2  4  1  0  0  0
  2  9  1  0  0  0
  2 10  1  0  0  0
  3  5  1  0  0  0
  3 11  1  0  0  0
  4  7  1  0  0  0
  4 12  1  0  0  0
  4 19  1  0  0  0
  5  6  1  0  0  0
  5 13  1  0  0  0
  6 14  1  0  0  0
  6 17  2  0  0  0
  7  8  2  0  0  0
  7 21  1  0  0  0
 15 19  1  0  0  0
 16 19  1  0  0  0
 17 18  1  0  0  0
 19 20  1  0  0  0
M  CHG  3  17   1  19   1  21  -1
M  END
> <i_ionizer_Ion_state_n>
7

> <i_ionizer_Tot_Q>
1

> <s_ionizer_Ion_centers>
17_19_21

> <s_ionizer_Ion_types>
N4_N5_OM

> <s_ionizer_Ion_ctrs_in>
4_9_10

> <r_ionizer_Ionization_penalty>
0.411459

> <r_ionizer_Ionization_penalty_charging>
0.411459

> <r_ionizer_Ionization_penalty_neutral>
0

> <s_st_Chirality_1>
4_S_19_7_2_12

> <i_mmod_Serial_Number-OPLS-2005>
99

> <i_i_glide_lignum>
97

> <r_i_docking_score>
-5.77059

> <r_i_glide_gscore>
-5.77059

> <r_i_glide_lipo>
-0.315136

> <r_i_glide_hbond>
-0.974696

> <r_i_glide_metal>
0

> <r_i_glide_eburp>
-2.5

> <r_i_glide_evdw>
-11.6724

> <r_i_glide_ecoul>
-7.88402

> <r_i_glide_erotb>
0.699926

> <r_i_glide_esite>
-0.958493

> <r_i_glide_emodel>
-43.2996

> <r_i_glide_energy>
-19.5564

> <r_i_glide_einternal>
3.22154

> <i_i_glide_confnum>
3

> <i_i_glide_posenum>
925

$$$$
C05839
                    3D
 Structure written by MMmdl.
 41 42  0  0  1  0            999 V2000
    3.4413    2.3636    2.0432 C   0  0  2  0  0  0
    3.0048    1.8460    3.2803 O   0  0  0  0  0  0
    4.1899    1.2828    1.2353 C   0  0  1  0  0  0
    4.1970    3.5535    2.1583 O   0  0  0  0  0  0
    2.0539    0.7783    3.1841 C   0  0  1  0  0  0
    3.3182    0.0198    1.1024 C   0  0  2  0  0  0
    4.4970    1.8106   -0.0514 O   0  0  0  0  0  0
    3.6710    4.7023    2.6383 C   0  0  0  0  0  0
    2.7503   -0.4101    2.4723 C   0  0  2  0  0  0
    1.5950    0.4863    4.6267 C   0  0  0  0  0  0
    4.0954   -1.0364    0.5425 O   0  0  0  0  0  0
    3.5610    5.7027    1.5590 C   0  0  0  0  0  0
    3.3715    4.8950    3.8176 O   0  0  0  0  0  0
    1.8475   -1.4992    2.3002 O   0  0  0  0  0  0
    0.7942   -0.6863    4.7235 O   0  0  0  0  0  0
    2.4177    6.2325    1.0712 C   0  0  0  0  0  0
    1.0137    5.9070    1.3908 C   0  0  0  0  0  0
   -0.0383    6.6563    0.8112 C   0  0  0  0  0  0
    0.6943    4.8303    2.2491 C   0  0  0  0  0  0
   -1.3808    6.3409    1.1038 C   0  0  0  0  0  0
    0.2297    7.6965   -0.0336 O   0  0  0  0  0  0
   -0.6469    4.5169    2.5408 C   0  0  0  0  0  0
   -1.6857    5.2740    1.9693 C   0  0  0  0  0  0
    2.5294    2.6801    1.5190 H   0  0  0  0  0  0
    5.1190    1.0292    1.7466 H   0  0  0  0  0  0
    1.1977    1.1232    2.6013 H   0  0  0  0  0  0
    2.4866    0.2350    0.4289 H   0  0  0  0  0  0
    3.6634    2.0182   -0.4965 H   0  0  0  0  0  0
    3.5737   -0.7479    3.1037 H   0  0  0  0  0  0
    2.4563    0.3892    5.2884 H   0  0  0  0  0  0
    1.0090    1.3273    4.9988 H   0  0  0  0  0  0
    4.0974   -0.9390   -0.4195 H   0  0  0  0  0  0
    4.4937    6.0527    1.1411 H   0  0  0  0  0  0
    1.0770   -1.1864    1.8073 H   0  0  0  0  0  0
    1.3763   -1.4499    4.8382 H   0  0  0  0  0  0
    2.5301    6.9852    0.3044 H   0  0  0  0  0  0
    1.4818    4.2351    2.6878 H   0  0  0  0  0  0
   -2.1829    6.9161    0.6648 H   0  0  0  0  0  0
   -0.4801    8.3168   -0.0967 H   0  0  0  0  0  0
   -0.8777    3.6942    3.2013 H   0  0  0  0  0  0
   -2.7152    5.0346    2.1916 H   0  0  0  0  0  0
  1  2  1  0  0  0
  1  3  1  0  0  0
  1  4  1  0  0  0
  1 24  1  0  0  0
  2  5  1  0  0  0
  3  6  1  0  0  0
  3  7  1  0  0  0
  3 25  1  0  0  0
  4  8  1  0  0  0
  5  9  1  0  0  0
  5 10  1  0  0  0
  5 26  1  0  0  0
  6 11  1  0  0  0
  6  9  1  0  0  0
  6 27  1  0  0  0
  7 28  1  0  0  0
  8 12  1  0  0  0
  8 13  2  0  0  0
  9 14  1  0  0  0
  9 29  1  0  0  0
 10 15  1  0  0  0
 10 30  1  0  0  0
 10 31  1  0  0  0
 11 32  1  0  0  0
 12 16  2  0  0  0
 12 33  1  0  0  0
 14 34  1  0  0  0
 15 35  1  0  0  0
 16 17  1  0  0  0
 16 36  1  0  0  0
 17 18  2  0  0  0
 17 19  1  0  0  0
 18 20  1  0  0  0
 18 21  1  0  0  0
 19 22  2  0  0  0
 19 37  1  0  0  0
 20 23  2  0  0  0
 20 38  1  0  0  0
 21 39  1  0  0  0
 22 23  1  0  0  0
 22 40  1  0  0  0
 23 41  1  0  0  0
M  END
> <i_ionizer_Ion_state_n>
0

> <i_ionizer_Tot_Q>
0

> <s_ionizer_Ion_centers>


> <s_ionizer_Ion_types>


> <s_ionizer_Ion_ctrs_in>


> <r_ionizer_Ionization_penalty>
0.00059219

> <r_ionizer_Ionization_penalty_charging>
0

> <r_ionizer_Ionization_penalty_neutral>
0.00059219

> <s_st_Chirality_1>
1_S_4_2_3_24

> <s_st_Chirality_2>
3_R_7_1_6_25

> <s_st_Chirality_3>
5_R_2_9_10_26

> <s_st_Chirality_4>
6_S_11_3_9_27

> <s_st_Chirality_5>
9_R_14_6_5_29

> <s_st_EZ_1>
8_12_16_17_Z

> <i_mmod_Serial_Number-OPLS-2005>
808

> <i_i_glide_lignum>
799

> <r_i_docking_score>
-5.76119

> <r_i_glide_gscore>
-5.76119

> <r_i_glide_lipo>
-1.21571

> <r_i_glide_hbond>
-0.633896

> <r_i_glide_metal>
0

> <r_i_glide_eburp>
-1.31586

> <r_i_glide_evdw>
-25.9988

> <r_i_glide_ecoul>
-6.80915

> <r_i_glide_erotb>
1.00643

> <r_i_glide_esite>
-0.841327

> <r_i_glide_emodel>
-49.8491

> <r_i_glide_energy>
-32.8079

> <r_i_glide_einternal>
2.80374

> <i_i_glide_confnum>
4

> <i_i_glide_posenum>
61

$$$$
C03267
                    3D
 Structure written by MMmdl.
 27 27  0  0  1  0            999 V2000
    2.5423    2.6037    2.4025 C   0  0  2  0  0  0
    1.7764    1.8100    1.5985 O   0  0  0  0  0  0
    3.6497    1.7202    2.9643 C   0  0  2  0  0  0
    1.8588    3.2207    3.4950 O   0  0  0  0  0  0
    3.1395    3.6037    1.3802 C   0  0  0  0  0  0
    2.2222    0.4423    1.5484 C   0  0  1  0  0  0
    3.6837    0.5473    2.0097 C   0  0  1  0  0  0
    3.4007    1.3237    4.3003 O   0  0  0  0  0  0
    0.6100    4.4733    3.1687 P   0  0  0  0  0  0
    4.1004    4.4792    1.9347 O   0  0  0  0  0  0
    1.4625   -0.6460    2.3261 C   0  0  0  0  0  0
    4.5408    0.8115    0.9155 O   0  0  0  0  0  0
   -0.7213    3.7002    3.2998 O   0  0  0  0  0  0
    0.1157   -0.6992    1.9023 O   0  0  0  0  0  0
    4.6006    2.2545    2.9197 H   0  0  0  0  0  0
    3.6982    2.8538    0.8197 H   0  0  0  0  0  0
    2.5375    4.1315    0.6434 H   0  0  0  0  0  0
    2.2065    0.2082    0.4826 H   0  0  0  0  0  0
    3.9951   -0.3634    2.5242 H   0  0  0  0  0  0
    3.6619    0.4210    4.3914 H   0  0  0  0  0  0
    4.5555    4.9072    1.2266 H   0  0  0  0  0  0
    1.9254   -1.6248    2.1988 H   0  0  0  0  0  0
    1.4799   -0.4223    3.3931 H   0  0  0  0  0  0
    4.4461    0.1064    0.2929 H   0  0  0  0  0  0
   -0.3179   -1.3877    2.3832 H   0  0  0  0  0  0
    0.8992    5.4841    4.3002 O   0  5  0  0  0  0
    0.9859    4.9379    1.7441 O   0  5  0  0  0  0
  1  2  1  0  0  0
  1  3  1  0  0  0
  1  4  1  0  0  0
  1  5  1  0  0  0
  2  6  1  0  0  0
  3  7  1  0  0  0
  3  8  1  0  0  0
  3 15  1  0  0  0
  4  9  1  0  0  0
  5 10  1  0  0  0
  5 16  1  0  0  0
  5 17  1  0  0  0
  6 11  1  0  0  0
  6  7  1  0  0  0
  6 18  1  0  0  0
  7 12  1  0  0  0
  7 19  1  0  0  0
  8 20  1  0  0  0
  9 13  2  0  0  0
  9 26  1  0  0  0
  9 27  1  0  0  0
 10 21  1  0  0  0
 11 14  1  0  0  0
 11 22  1  0  0  0
 11 23  1  0  0  0
 12 24  1  0  0  0
 14 25  1  0  0  0
M  CHG  2  26  -1  27  -1
M  END
> <i_ionizer_Ion_state_n>
3

> <i_ionizer_Tot_Q>
-2

> <s_ionizer_Ion_centers>
26_27

> <s_ionizer_Ion_types>
OM_OM

> <s_ionizer_Ion_ctrs_in>
13_14

> <r_ionizer_Ionization_penalty>
1.49178e-05

> <r_ionizer_Ionization_penalty_charging>
1.49178e-05

> <r_ionizer_Ionization_penalty_neutral>
0

> <s_st_Chirality_1>
1_S_4_2_3_5

> <s_st_Chirality_2>
3_S_8_1_7_15

> <s_st_Chirality_3>
6_R_2_7_11_18

> <s_st_Chirality_4>
7_R_12_3_6_19

> <i_mmod_Serial_Number-OPLS-2005>
533

> <i_i_glide_lignum>
527

> <r_i_docking_score>
-5.75759

> <r_i_glide_gscore>
-5.75759

> <r_i_glide_lipo>
-0.40662

> <r_i_glide_hbond>
-1.97865

> <r_i_glide_metal>
0

> <r_i_glide_eburp>
-1.8324

> <r_i_glide_evdw>
-18.9728

> <r_i_glide_ecoul>
-6.77413

> <r_i_glide_erotb>
0.9087

> <r_i_glide_esite>
-0.25338

> <r_i_glide_emodel>
-55.0449

> <r_i_glide_energy>
-25.747

> <r_i_glide_einternal>
7.14996

> <i_i_glide_confnum>
15

> <i_i_glide_posenum>
198

$$$$
C03564
                    3D
 Structure written by MMmdl.
 14 14  0  0  1  0            999 V2000
    0.9808    1.8066    3.3525 C   0  0  0  0  0  0
    0.6016    3.2514    3.1537 C   0  0  0  0  0  0
    0.7833    0.8258    2.2245 C   0  0  0  0  0  0
    1.4678    1.3004    4.4096 N   0  0  0  0  0  0
    1.2205    3.8725    2.2605 O   0  0  0  0  0  0
    1.0269   -0.5084    2.9105 C   0  0  0  0  0  0
    1.7259   -0.1096    4.2150 C   0  0  0  0  0  0
   -0.2198    0.8936    1.8016 H   0  0  0  0  0  0
    1.5165    1.0168    1.4402 H   0  0  0  0  0  0
    0.0749   -0.9933    3.1314 H   0  0  0  0  0  0
    1.6219   -1.1926    2.3048 H   0  0  0  0  0  0
    2.8013   -0.2804    4.1463 H   0  0  0  0  0  0
    1.3536   -0.6944    5.0569 H   0  0  0  0  0  0
   -0.2959    3.7039    3.8999 O   0  5  0  0  0  0
  1  2  1  0  0  0
  1  3  1  0  0  0
  1  4  2  0  0  0
  2  5  2  0  0  0
  2 14  1  0  0  0
  3  6  1  0  0  0
  3  8  1  0  0  0
  3  9  1  0  0  0
  4  7  1  0  0  0
  6  7  1  0  0  0
  6 10  1  0  0  0
  6 11  1  0  0  0
  7 12  1  0  0  0
  7 13  1  0  0  0
M  CHG  1  14  -1
M  END
> <i_ionizer_Ion_state_n>
1

> <i_ionizer_Tot_Q>
-1

> <s_ionizer_Ion_centers>
14

> <s_ionizer_Ion_types>
OM

> <s_ionizer_Ion_ctrs_in>
5

> <r_ionizer_Ionization_penalty>
0.00059219

> <r_ionizer_Ionization_penalty_charging>
0.00059219

> <r_ionizer_Ionization_penalty_neutral>
0

> <s_st_EZ_1>
2_1_4_7_E

> <i_mmod_Serial_Number-OPLS-2005>
555

> <i_i_glide_lignum>
549

> <r_i_docking_score>
-5.7549

> <r_i_glide_gscore>
-5.7549

> <r_i_glide_lipo>
-0.337904

> <r_i_glide_hbond>
-0.7

> <r_i_glide_metal>
0

> <r_i_glide_eburp>
-2.5

> <r_i_glide_evdw>
-14.4861

> <r_i_glide_ecoul>
-4.82992

> <r_i_glide_erotb>
0

> <r_i_glide_esite>
-0.575117

> <r_i_glide_emodel>
-39.9372

> <r_i_glide_energy>
-19.316

> <r_i_glide_einternal>
0.181927

> <i_i_glide_confnum>
1

> <i_i_glide_posenum>
585

$$$$
C06006
                    3D
 Structure written by MMmdl.
 19 18  0  0  1  0            999 V2000
    1.3047    1.6163    3.0745 C   0  0  2  0  0  0
    2.7061    1.8032    2.4510 C   0  0  0  0  0  0
    0.7038    3.0356    3.2352 C   0  0  0  0  0  0
    1.3839    0.8545    4.4308 C   0  0  0  0  0  0
    0.5002    0.8445    2.1926 O   0  0  0  0  0  0
    2.8049    2.1816    0.9716 C   0  0  0  0  0  0
    3.7333    1.6362    3.1099 O   0  0  0  0  0  0
    0.8725    3.8542    2.3021 O   0  0  0  0  0  0
    1.8482   -0.6116    4.3415 C   0  0  0  0  0  0
    2.0609    1.3863    5.1009 H   0  0  0  0  0  0
    0.4133    0.8732    4.9296 H   0  0  0  0  0  0
    0.5300    1.2424    1.3371 H   0  0  0  0  0  0
    2.6375    1.3063    0.3442 H   0  0  0  0  0  0
    2.0650    2.9400    0.7147 H   0  0  0  0  0  0
    3.7927    2.5825    0.7437 H   0  0  0  0  0  0
    1.8937   -1.0596    5.3341 H   0  0  0  0  0  0
    1.1675   -1.2167    3.7429 H   0  0  0  0  0  0
    2.8419   -0.6910    3.9006 H   0  0  0  0  0  0
    0.1000    3.2989    4.3001 O   0  5  0  0  0  0
  1  2  1  0  0  0
  1  3  1  0  0  0
  1  4  1  0  0  0
  1  5  1  0  0  0
  2  6  1  0  0  0
  2  7  2  0  0  0
  3  8  2  0  0  0
  3 19  1  0  0  0
  4  9  1  0  0  0
  4 10  1  0  0  0
  4 11  1  0  0  0
  5 12  1  0  0  0
  6 13  1  0  0  0
  6 14  1  0  0  0
  6 15  1  0  0  0
  9 16  1  0  0  0
  9 17  1  0  0  0
  9 18  1  0  0  0
M  CHG  1  19  -1
M  END
> <i_ionizer_Ion_state_n>
1

> <i_ionizer_Tot_Q>
-1

> <s_ionizer_Ion_centers>
19

> <s_ionizer_Ion_types>
OM

> <s_ionizer_Ion_ctrs_in>
8

> <r_ionizer_Ionization_penalty>
0.00059219

> <r_ionizer_Ionization_penalty_charging>
0.00059219

> <r_ionizer_Ionization_penalty_neutral>
0

> <s_st_Chirality_1>
1_S_5_3_2_4

> <i_mmod_Serial_Number-OPLS-2005>
848

> <i_i_glide_lignum>
836

> <r_i_docking_score>
-5.74998

> <r_i_glide_gscore>
-5.74998

> <r_i_glide_lipo>
-0.364869

> <r_i_glide_hbond>
-0.7

> <r_i_glide_metal>
0

> <r_i_glide_eburp>
-2.5

> <r_i_glide_evdw>
-15.0671

> <r_i_glide_ecoul>
-4.40823

> <r_i_glide_erotb>
0

> <r_i_glide_esite>
-0.538917

> <r_i_glide_emodel>
-34.8733

> <r_i_glide_energy>
-19.4754

> <r_i_glide_einternal>
4.63377

> <i_i_glide_confnum>
1

> <i_i_glide_posenum>
213

$$$$
C05668
                    3D
 Structure written by MMmdl.
 89 91  0  0  1  0            999 V2000
  -13.4473   13.2010    4.2766 N   0  0  0  0  0  0
  -13.9428   12.9051    5.6580 C   0  0  1  0  0  0
  -14.1043   12.8782    3.1102 C   0  0  0  0  0  0
  -12.2910   13.8358    3.8686 C   0  0  0  0  0  0
  -13.9460   11.3885    5.9014 C   0  0  1  0  0  0
  -13.0467   13.4678    6.5777 O   0  0  0  0  0  0
  -13.2602   13.3154    2.0541 C   0  0  0  0  0  0
  -15.3072   12.2492    2.9649 N   0  0  0  0  0  0
  -12.1294   13.9278    2.5750 N   0  0  0  0  0  0
  -13.4042   11.3023    7.3149 C   0  0  1  0  0  0
  -15.2245   10.7903    5.8779 O   0  0  0  0  0  0
  -12.3855   12.4496    7.3334 C   0  0  1  0  0  0
  -13.7258   13.0471    0.7429 C   0  0  0  0  0  0
  -15.6135   12.0661    1.6777 C   0  0  0  0  0  0
  -14.4854   11.5813    8.2049 O   0  0  0  0  0  0
  -11.0411   12.1220    6.6582 C   0  0  0  0  0  0
  -14.9137   12.4159    0.5930 N   0  0  0  0  0  0
  -13.0429   13.3867   -0.3580 N   0  0  0  0  0  0
  -15.1479   10.2241    9.1748 P   0  0  0  0  0  0
  -10.1722   13.2360    6.6584 O   0  0  0  0  0  0
  -16.5542   10.7260    9.5690 O   0  0  0  0  0  0
   -8.7345   13.2342    5.7447 P   0  0  0  0  0  0
   -7.7898   11.9622    6.3737 O   0  0  0  0  0  0
   -9.0780   12.9109    4.3406 O   0  0  0  0  0  0
   -6.6570   11.7468    7.6277 P   0  0  0  0  0  0
   -5.5953   10.5622    7.0128 O   0  0  0  0  0  0
   -5.8874   12.9986    7.8050 O   0  0  0  0  0  0
   -4.8637   10.7561    5.8147 C   0  0  0  0  0  0
   -3.8932    9.5807    5.5208 C   0  0  0  0  0  0
   -3.3490    9.7390    4.0602 C   0  0  2  0  0  0
   -2.7595    9.5925    6.5704 C   0  0  0  0  0  0
   -4.6629    8.2464    5.6550 C   0  0  0  0  0  0
   -2.4686    8.5802    3.5547 C   0  0  0  0  0  0
   -2.6261   10.9494    3.9192 O   0  0  0  0  0  0
   -2.3048    8.4940    2.2262 N   0  0  0  0  0  0
   -1.9304    7.8033    4.3443 O   0  0  0  0  0  0
   -1.6054    7.4089    1.5519 C   0  0  0  0  0  0
   -0.3048    7.9216    0.9093 C   0  0  0  0  0  0
    0.5453    6.8044    0.2959 C   0  0  0  0  0  0
    1.7068    6.5388    0.9104 N   0  0  0  0  0  0
    0.1645    6.2019   -0.7079 O   0  0  0  0  0  0
    2.5646    5.4063    0.5892 C   0  0  0  0  0  0
    2.4421    4.3134    1.6569 C   0  0  0  0  0  0
    3.4925    2.8845    1.2624 S   0  0  0  0  0  0
    2.8657    1.7176    2.4948 C   0  0  0  0  0  0
    3.5255    0.3368    2.4648 C   0  0  0  0  0  0
    1.9781    2.0040    3.2985 O   0  0  0  0  0  0
    2.8176   -0.7004    3.3532 C   0  0  0  0  0  0
    2.9022   -0.3028    4.7051 O   0  0  0  0  0  0
  -14.9221   13.3802    5.7266 H   0  0  0  0  0  0
  -11.5561   14.2257    4.5575 H   0  0  0  0  0  0
  -13.2761   10.8945    5.1979 H   0  0  0  0  0  0
  -12.9679   10.3262    7.5300 H   0  0  0  0  0  0
  -15.5733   10.9541    5.0115 H   0  0  0  0  0  0
  -12.1817   12.8052    8.3419 H   0  0  0  0  0  0
  -16.5504   11.5634    1.4888 H   0  0  0  0  0  0
  -10.5424   11.3021    7.1649 H   0  0  0  0  0  0
  -11.2203   11.7940    5.6341 H   0  0  0  0  0  0
  -13.4157   13.1674   -1.2697 H   0  0  0  0  0  0
  -12.1452   13.8404   -0.2655 H   0  0  0  0  0  0
   -5.5554   10.8970    4.9830 H   0  0  0  0  0  0
   -4.3181   11.6944    5.9172 H   0  0  0  0  0  0
   -4.2044    9.8218    3.3873 H   0  0  0  0  0  0
   -2.0776    8.7509    6.4544 H   0  0  0  0  0  0
   -2.1691   10.5077    6.5218 H   0  0  0  0  0  0
   -3.1694    9.5253    7.5768 H   0  0  0  0  0  0
   -4.0188    7.3811    5.4989 H   0  0  0  0  0  0
   -5.0927    8.1334    6.6507 H   0  0  0  0  0  0
   -5.4799    8.1851    4.9356 H   0  0  0  0  0  0
   -2.5061   11.1229    2.9985 H   0  0  0  0  0  0
   -2.7007    9.2208    1.6478 H   0  0  0  0  0  0
   -1.3863    6.6204    2.2742 H   0  0  0  0  0  0
   -2.2616    6.9794    0.7925 H   0  0  0  0  0  0
   -0.5357    8.6461    0.1274 H   0  0  0  0  0  0
    0.2893    8.4461    1.6595 H   0  0  0  0  0  0
    2.0142    7.1598    1.6449 H   0  0  0  0  0  0
    2.2867    5.0071   -0.3877 H   0  0  0  0  0  0
    3.5993    5.7454    0.5175 H   0  0  0  0  0  0
    2.7322    4.7093    2.6311 H   0  0  0  0  0  0
    1.4057    3.9817    1.7339 H   0  0  0  0  0  0
    3.5437   -0.0114    1.4314 H   0  0  0  0  0  0
    4.5640    0.4470    2.7791 H   0  0  0  0  0  0
    1.7660   -0.7957    3.0791 H   0  0  0  0  0  0
    3.2768   -1.6840    3.2457 H   0  0  0  0  0  0
    3.6035   -0.7839    5.1179 H   0  0  0  0  0  0
  -15.0985    9.0607    8.1598 O   0  5  0  0  0  0
  -14.1190   10.1492   10.3244 O   0  5  0  0  0  0
   -8.0192   14.4981    6.0339 O   0  5  0  0  0  0
   -7.3750   11.1663    8.7862 O   0  5  0  0  0  0
  1  2  1  0  0  0
  1  3  1  0  0  0
  1  4  1  0  0  0
  2  5  1  0  0  0
  2  6  1  0  0  0
  2 50  1  0  0  0
  3  7  2  0  0  0
  3  8  1  0  0  0
  4  9  2  0  0  0
  4 51  1  0  0  0
  5 10  1  0  0  0
  5 11  1  0  0  0
  5 52  1  0  0  0
  6 12  1  0  0  0
  7 13  1  0  0  0
  7  9  1  0  0  0
  8 14  2  0  0  0
 10 15  1  0  0  0
 10 12  1  0  0  0
 10 53  1  0  0  0
 11 54  1  0  0  0
 12 16  1  0  0  0
 12 55  1  0  0  0
 13 17  2  0  0  0
 13 18  1  0  0  0
 14 17  1  0  0  0
 14 56  1  0  0  0
 15 19  1  0  0  0
 16 20  1  0  0  0
 16 57  1  0  0  0
 16 58  1  0  0  0
 18 59  1  0  0  0
 18 60  1  0  0  0
 19 21  2  0  0  0
 19 86  1  0  0  0
 19 87  1  0  0  0
 20 22  1  0  0  0
 22 23  1  0  0  0
 22 24  2  0  0  0
 22 88  1  0  0  0
 23 25  1  0  0  0
 25 26  1  0  0  0
 25 27  2  0  0  0
 25 89  1  0  0  0
 26 28  1  0  0  0
 28 29  1  0  0  0
 28 61  1  0  0  0
 28 62  1  0  0  0
 29 30  1  0  0  0
 29 31  1  0  0  0
 29 32  1  0  0  0
 30 33  1  0  0  0
 30 34  1  0  0  0
 30 63  1  0  0  0
 31 64  1  0  0  0
 31 65  1  0  0  0
 31 66  1  0  0  0
 32 67  1  0  0  0
 32 68  1  0  0  0
 32 69  1  0  0  0
 33 35  1  0  0  0
 33 36  2  0  0  0
 34 70  1  0  0  0
 35 37  1  0  0  0
 35 71  1  0  0  0
 37 38  1  0  0  0
 37 72  1  0  0  0
 37 73  1  0  0  0
 38 39  1  0  0  0
 38 74  1  0  0  0
 38 75  1  0  0  0
 39 40  1  0  0  0
 39 41  2  0  0  0
 40 42  1  0  0  0
 40 76  1  0  0  0
 42 43  1  0  0  0
 42 77  1  0  0  0
 42 78  1  0  0  0
 43 44  1  0  0  0
 43 79  1  0  0  0
 43 80  1  0  0  0
 44 45  1  0  0  0
 45 46  1  0  0  0
 45 47  2  0  0  0
 46 48  1  0  0  0
 46 81  1  0  0  0
 46 82  1  0  0  0
 48 49  1  0  0  0
 48 83  1  0  0  0
 48 84  1  0  0  0
 49 85  1  0  0  0
M  CHG  4  86  -1  87  -1  88  -1  89  -1
M  END
> <i_ionizer_Ion_state_n>
30

> <i_ionizer_Tot_Q>
-4

> <s_ionizer_Ion_centers>
86_87_88_89

> <s_ionizer_Ion_types>
OM_OM_OM_OM

> <s_ionizer_Ion_ctrs_in>
21_22_26_30

> <r_ionizer_Ionization_penalty>
4.85714e-05

> <r_ionizer_Ionization_penalty_charging>
2.98356e-05

> <r_ionizer_Ionization_penalty_neutral>
1.87357e-05

> <s_st_Chirality_1>
2_R_6_1_5_50

> <s_st_Chirality_2>
5_R_11_2_10_52

> <s_st_Chirality_3>
10_R_15_5_12_53

> <s_st_Chirality_4>
12_R_6_10_16_55

> <s_st_Chirality_5>
30_R_34_33_29_63

> <i_mmod_Serial_Number-OPLS-2005>
781

> <i_i_glide_lignum>
772

> <r_i_docking_score>
-5.74979

> <r_i_glide_gscore>
-5.74979

> <r_i_glide_lipo>
-0.891394

> <r_i_glide_hbond>
-1.84791

> <r_i_glide_metal>
0

> <r_i_glide_eburp>
3.84892e-17

> <r_i_glide_evdw>
-41.7986

> <r_i_glide_ecoul>
-6.57566

> <r_i_glide_erotb>
0.58341

> <r_i_glide_esite>
0.407559

> <r_i_glide_emodel>
-92.1188

> <r_i_glide_energy>
-48.3743

> <r_i_glide_einternal>
11.6544

> <i_i_glide_confnum>
98

> <i_i_glide_posenum>
996

$$$$
C00906
                    3D
 Structure written by MMmdl.
 17 17  0  0  1  0            999 V2000
    3.1598    1.0681    2.3603 C   0  0  0  0  0  0
    3.3447    0.9626    3.8856 C   0  0  1  0  0  0
    2.0830    0.4690    1.8132 N   0  0  0  0  0  0
    3.9590    1.7027    1.6740 O   0  0  0  0  0  0
    2.6404   -0.2970    4.4275 C   0  0  0  0  0  0
    4.8199    1.0272    4.3187 C   0  0  0  0  0  0
    1.1292   -0.2384    2.4601 C   0  0  0  0  0  0
    1.3668   -0.5301    3.7541 N   0  0  0  0  0  0
    0.1001   -0.6000    1.8965 O   0  0  0  0  0  0
    2.8368    1.8329    4.3037 H   0  0  0  0  0  0
    1.9430    0.6136    0.8244 H   0  0  0  0  0  0
    3.2689   -1.1779    4.2887 H   0  0  0  0  0  0
    2.4622   -0.2006    5.4989 H   0  0  0  0  0  0
    4.9087    0.9729    5.4040 H   0  0  0  0  0  0
    5.3951    0.2018    3.8975 H   0  0  0  0  0  0
    5.2902    1.9586    4.0014 H   0  0  0  0  0  0
    0.6567   -1.0359    4.2640 H   0  0  0  0  0  0
  1  2  1  0  0  0
  1  3  1  0  0  0
  1  4  2  0  0  0
  2  5  1  0  0  0
  2  6  1  0  0  0
  2 10  1  0  0  0
  3  7  1  0  0  0
  3 11  1  0  0  0
  5  8  1  0  0  0
  5 12  1  0  0  0
  5 13  1  0  0  0
  6 14  1  0  0  0
  6 15  1  0  0  0
  6 16  1  0  0  0
  7  9  2  0  0  0
  7  8  1  0  0  0
  8 17  1  0  0  0
M  END
> <i_ionizer_Ion_state_n>
0

> <i_ionizer_Tot_Q>
0

> <s_ionizer_Ion_centers>


> <s_ionizer_Ion_types>


> <s_ionizer_Ion_ctrs_in>


> <r_ionizer_Ionization_penalty>
0

> <r_ionizer_Ionization_penalty_charging>
0

> <r_ionizer_Ionization_penalty_neutral>
0

> <s_st_Chirality_1>
2_R_1_5_6_10

> <i_mmod_Serial_Number-OPLS-2005>
356

> <i_i_glide_lignum>
353

> <r_i_docking_score>
-5.7382

> <r_i_glide_gscore>
-5.7382

> <r_i_glide_lipo>
-0.314812

> <r_i_glide_hbond>
-0.285474

> <r_i_glide_metal>
0

> <r_i_glide_eburp>
-2.5

> <r_i_glide_evdw>
-21.2274

> <r_i_glide_ecoul>
-2.83163

> <r_i_glide_erotb>
0

> <r_i_glide_esite>
-0.656558

> <r_i_glide_emodel>
-30.2827

> <r_i_glide_energy>
-24.059

> <r_i_glide_einternal>
0

> <i_i_glide_confnum>
1

> <i_i_glide_posenum>
322

$$$$
C01222
                    3D
 Structure written by MMmdl.
 59 62  0  0  1  0            999 V2000
   -1.9022   10.4231    5.0876 N   0  0  0  0  0  0
   -1.6903   11.2021    6.2052 C   0  0  0  0  0  0
   -2.4928    9.0498    5.0764 C   0  0  2  0  0  0
   -1.4734   11.1942    4.0317 C   0  0  0  0  0  0
   -1.1393   12.3869    5.7592 C   0  0  0  0  0  0
   -1.9733   10.8695    7.5027 N   0  0  0  0  0  0
   -1.4669    8.1485    4.7737 O   0  0  0  0  0  0
   -3.5433    8.9571    3.9637 C   0  0  1  0  0  0
   -1.0071   12.3626    4.3753 N   0  0  0  0  0  0
   -0.8026   13.4118    6.7066 C   0  0  0  0  0  0
   -1.6656   11.8122    8.3749 C   0  0  0  0  0  0
   -1.7510    7.4430    3.5671 C   0  0  1  0  0  0
   -2.7383    8.3469    2.8286 C   0  0  1  0  0  0
   -4.6313    8.1410    4.3550 O   0  0  0  0  0  0
   -1.1042   13.0363    8.0213 N   0  0  0  0  0  0
   -0.3071   14.5165    6.4943 O   0  0  0  0  0  0
   -1.8971   11.6018    9.6765 N   0  0  0  0  0  0
   -0.4491    7.1777    2.8016 C   0  0  0  0  0  0
   -3.5464    7.6363    1.9084 O   0  0  0  0  0  0
    0.4504    6.4700    3.6293 O   0  0  0  0  0  0
    1.0247    4.9357    3.1858 P   0  0  0  0  0  0
    2.5541    4.8391    3.9244 O   0  0  0  0  0  0
    0.1451    3.9210    3.8092 O   0  0  0  0  0  0
    4.0162    4.0252    3.6159 P   0  0  0  0  0  0
    3.7425    3.2771    2.1052 O   0  0  0  0  0  0
    5.0968    5.0287    3.4842 O   0  0  0  0  0  0
    4.2348    1.9931    1.7481 C   0  0  2  0  0  0
    3.7792    1.5360    0.3309 C   0  0  2  0  0  0
    3.8614    1.0170    2.7165 O   0  0  0  0  0  0
    2.8422    0.3028    0.3110 C   0  0  2  0  0  0
    4.9004    1.2853   -0.4964 O   0  0  0  0  0  0
    2.4523    0.8179    2.8347 C   0  0  1  0  0  0
    1.8795    0.3273    1.4971 C   0  0  0  0  0  0
    3.5776   -0.9093    0.3629 O   0  0  0  0  0  0
    2.1981   -0.1860    3.9679 C   0  0  0  0  0  0
    0.7196   -0.0702    1.3915 O   0  0  0  0  0  0
   -2.8831    8.8989    6.0836 H   0  0  0  0  0  0
   -1.5147   10.8692    3.0021 H   0  0  0  0  0  0
   -3.9321    9.9427    3.7026 H   0  0  0  0  0  0
   -2.2385    6.5019    3.8270 H   0  0  0  0  0  0
   -2.1973    9.1346    2.3033 H   0  0  0  0  0  0
   -5.1768    8.6562    4.9314 H   0  0  0  0  0  0
   -0.8938   13.7112    8.7408 H   0  0  0  0  0  0
   -2.3051   10.7256    9.9693 H   0  0  0  0  0  0
   -1.6710   12.3063   10.3628 H   0  0  0  0  0  0
   -0.6478    6.5813    1.9114 H   0  0  0  0  0  0
   -0.0003    8.1140    2.4691 H   0  0  0  0  0  0
   -4.0211    8.2764    1.3969 H   0  0  0  0  0  0
    5.3230    2.0614    1.7819 H   0  0  0  0  0  0
    3.2433    2.3543   -0.1437 H   0  0  0  0  0  0
    2.2698    0.3004   -0.6176 H   0  0  0  0  0  0
    4.6560    0.6072   -1.1082 H   0  0  0  0  0  0
    1.9698    1.7631    3.0875 H   0  0  0  0  0  0
    4.0396   -1.0092   -0.4557 H   0  0  0  0  0  0
    2.6168    0.1782    4.9061 H   0  0  0  0  0  0
    1.1312   -0.3482    4.1258 H   0  0  0  0  0  0
    2.6575   -1.1515    3.7528 H   0  0  0  0  0  0
    1.2106    4.9356    1.7173 O   0  5  0  0  0  0
    4.1532    2.9509    4.6249 O   0  5  0  0  0  0
  1  2  1  0  0  0
  1  3  1  0  0  0
  1  4  1  0  0  0
  2  5  2  0  0  0
  2  6  1  0  0  0
  3  7  1  0  0  0
  3  8  1  0  0  0
  3 37  1  0  0  0
  4  9  2  0  0  0
  4 38  1  0  0  0
  5 10  1  0  0  0
  5  9  1  0  0  0
  6 11  2  0  0  0
  7 12  1  0  0  0
  8 13  1  0  0  0
  8 14  1  0  0  0
  8 39  1  0  0  0
 10 15  1  0  0  0
 10 16  2  0  0  0
 11 17  1  0  0  0
 11 15  1  0  0  0
 12 18  1  0  0  0
 12 13  1  0  0  0
 12 40  1  0  0  0
 13 19  1  0  0  0
 13 41  1  0  0  0
 14 42  1  0  0  0
 15 43  1  0  0  0
 17 44  1  0  0  0
 17 45  1  0  0  0
 18 20  1  0  0  0
 18 46  1  0  0  0
 18 47  1  0  0  0
 19 48  1  0  0  0
 20 21  1  0  0  0
 21 22  1  0  0  0
 21 23  2  0  0  0
 21 58  1  0  0  0
 22 24  1  0  0  0
 24 25  1  0  0  0
 24 26  2  0  0  0
 24 59  1  0  0  0
 25 27  1  0  0  0
 27 28  1  0  0  0
 27 29  1  0  0  0
 27 49  1  0  0  0
 28 30  1  0  0  0
 28 31  1  0  0  0
 28 50  1  0  0  0
 29 32  1  0  0  0
 30 33  1  0  0  0
 30 34  1  0  0  0
 30 51  1  0  0  0
 31 52  1  0  0  0
 32 35  1  0  0  0
 32 33  1  0  0  0
 32 53  1  0  0  0
 33 36  2  0  0  0
 34 54  1  0  0  0
 35 55  1  0  0  0
 35 56  1  0  0  0
 35 57  1  0  0  0
M  CHG  2  58  -1  59  -1
M  END
> <i_ionizer_Ion_state_n>
6

> <i_ionizer_Tot_Q>
-2

> <s_ionizer_Ion_centers>
58_59

> <s_ionizer_Ion_types>
OM_OM

> <s_ionizer_Ion_ctrs_in>
23_27

> <r_ionizer_Ionization_penalty>
3.36536e-05

> <r_ionizer_Ionization_penalty_charging>
1.49178e-05

> <r_ionizer_Ionization_penalty_neutral>
1.87357e-05

> <s_st_Chirality_1>
3_R_7_1_8_37

> <s_st_Chirality_2>
8_R_14_3_13_39

> <s_st_Chirality_3>
12_R_7_13_18_40

> <s_st_Chirality_4>
13_R_19_8_12_41

> <s_st_Chirality_5>
27_R_25_29_28_49

> <s_st_Chirality_6>
28_S_31_27_30_50

> <s_st_Chirality_7>
30_R_34_33_28_51

> <s_st_Chirality_8>
32_R_29_33_35_53

> <i_mmod_Serial_Number-OPLS-2005>
425

> <i_i_glide_lignum>
421

> <r_i_docking_score>
-5.73483

> <r_i_glide_gscore>
-5.73483

> <r_i_glide_lipo>
-0.727703

> <r_i_glide_hbond>
-1.82313

> <r_i_glide_metal>
0

> <r_i_glide_eburp>
6.50521e-18

> <r_i_glide_evdw>
-28.4009

> <r_i_glide_ecoul>
-18.6826

> <r_i_glide_erotb>
0.439315

> <r_i_glide_esite>
0.517015

> <r_i_glide_emodel>
-105.682

> <r_i_glide_energy>
-47.0835

> <r_i_glide_einternal>
8.67445

> <i_i_glide_confnum>
376

> <i_i_glide_posenum>
574

$$$$
C00169
                    3D
 Structure written by MMmdl.
 10  9  0  0  1  0            999 V2000
    0.8910    2.2999    3.1662 P   0  0  0  0  0  0
    1.4495    1.2821    4.5331 O   0  0  0  0  0  0
    0.1002    1.2913    2.3021 O   0  0  0  0  0  0
    1.9542    0.0553    4.3841 C   0  0  0  0  0  0
    3.2948    0.1006    4.6966 N   0  0  0  0  0  0
    1.3355   -0.9464    4.0297 O   0  0  0  0  0  0
    3.8298   -0.7517    4.6347 H   0  0  0  0  0  0
    3.6809    0.9900    4.9744 H   0  0  0  0  0  0
    0.0371    3.3550    3.9043 O   0  5  0  0  0  0
    2.2207    2.8182    2.5726 O   0  5  0  0  0  0
  1  2  1  0  0  0
  1  3  2  0  0  0
  1  9  1  0  0  0
  1 10  1  0  0  0
  2  4  1  0  0  0
  4  5  1  0  0  0
  4  6  2  0  0  0
  5  7  1  0  0  0
  5  8  1  0  0  0
M  CHG  2   9  -1  10  -1
M  END
> <i_ionizer_Ion_state_n>
3

> <i_ionizer_Tot_Q>
-2

> <s_ionizer_Ion_centers>
9_10

> <s_ionizer_Ion_types>
OM_OM

> <s_ionizer_Ion_ctrs_in>
3_4

> <r_ionizer_Ionization_penalty>
1.49178e-05

> <r_ionizer_Ionization_penalty_charging>
1.49178e-05

> <r_ionizer_Ionization_penalty_neutral>
0

> <i_mmod_Serial_Number-OPLS-2005>
122

> <i_i_glide_lignum>
120

> <r_i_docking_score>
-5.73022

> <r_i_glide_gscore>
-5.73022

> <r_i_glide_lipo>
0

> <r_i_glide_hbond>
-1.07085

> <r_i_glide_metal>
0

> <r_i_glide_eburp>
-2.5

> <r_i_glide_evdw>
-13.2313

> <r_i_glide_ecoul>
-7.33676

> <r_i_glide_erotb>
0

> <r_i_glide_esite>
-0.367196

> <r_i_glide_emodel>
-47.1532

> <r_i_glide_energy>
-20.5681

> <r_i_glide_einternal>
0.443996

> <i_i_glide_confnum>
1

> <i_i_glide_posenum>
285

$$$$
C00253
                    3D
 Structure written by MMmdl.
 13 13  0  0  1  0            999 V2000
    1.3047    2.1118    3.1643 C   0  0  0  0  0  0
    1.0417    1.2116    4.2210 C   0  0  0  0  0  0
    2.2237    1.7066    2.1691 C   0  0  0  0  0  0
    0.6308    3.4529    3.1008 C   0  0  0  0  0  0
    1.6975   -0.0346    4.2379 C   0  0  0  0  0  0
    2.8570    0.5128    2.1780 N   0  0  0  0  0  0
   -0.3008    3.6961    3.8996 O   0  0  0  0  0  0
    2.5940   -0.3344    3.1946 C   0  0  0  0  0  0
    0.3495    1.4629    5.0116 H   0  0  0  0  0  0
    2.4660    2.3505    1.3362 H   0  0  0  0  0  0
    1.5170   -0.7433    5.0323 H   0  0  0  0  0  0
    3.1140   -1.2808    3.1762 H   0  0  0  0  0  0
    1.0219    4.2841    2.2518 O   0  5  0  0  0  0
  1  2  1  0  0  0
  1  3  2  0  0  0
  1  4  1  0  0  0
  2  5  2  0  0  0
  2  9  1  0  0  0
  3  6  1  0  0  0
  3 10  1  0  0  0
  4  7  2  0  0  0
  4 13  1  0  0  0
  5  8  1  0  0  0
  5 11  1  0  0  0
  6  8  2  0  0  0
  8 12  1  0  0  0
M  CHG  1  13  -1
M  END
> <i_ionizer_Ion_state_n>
2

> <i_ionizer_Tot_Q>
-1

> <s_ionizer_Ion_centers>
13

> <s_ionizer_Ion_types>
OM

> <s_ionizer_Ion_ctrs_in>
7

> <r_ionizer_Ionization_penalty>
0.0190381

> <r_ionizer_Ionization_penalty_charging>
0.00059219

> <r_ionizer_Ionization_penalty_neutral>
0.0184459

> <i_mmod_Serial_Number-OPLS-2005>
166

> <i_i_glide_lignum>
164

> <r_i_docking_score>
-5.73004

> <r_i_glide_gscore>
-5.73004

> <r_i_glide_lipo>
-0.497725

> <r_i_glide_hbond>
-0.7

> <r_i_glide_metal>
0

> <r_i_glide_eburp>
-2.5

> <r_i_glide_evdw>
-14.286

> <r_i_glide_ecoul>
-4.53366

> <r_i_glide_erotb>
0

> <r_i_glide_esite>
-0.436067

> <r_i_glide_emodel>
-39.2749

> <r_i_glide_energy>
-18.8196

> <r_i_glide_einternal>
0.155895

> <i_i_glide_confnum>
1

> <i_i_glide_posenum>
325

$$$$
C00624
                    3D
 Structure written by MMmdl.
 22 21  0  0  1  0            999 V2000
    2.0255    0.7031    4.2473 C   0  0  2  0  0  0
    2.0139    1.7044    3.0669 C   0  0  0  0  0  0
    3.4194    0.4286    4.5952 N   0  0  0  0  0  0
    1.3151   -0.6056    3.8555 C   0  0  0  0  0  0
    0.6095    2.1303    2.5798 C   0  0  0  0  0  0
    4.4098    1.3329    4.6306 C   0  0  0  0  0  0
    1.5916   -1.1050    2.7411 O   0  0  0  0  0  0
    0.0881    3.4107    3.2415 C   0  0  0  0  0  0
    5.7718    0.8196    5.0836 C   0  0  0  0  0  0
    4.2686    2.5152    4.3203 O   0  0  0  0  0  0
   -1.1203    3.7021    3.0974 O   0  0  0  0  0  0
    1.5099    1.1507    5.0992 H   0  0  0  0  0  0
    2.5710    2.5928    3.3689 H   0  0  0  0  0  0
    2.5632    1.2810    2.2238 H   0  0  0  0  0  0
    3.6292   -0.5159    4.8817 H   0  0  0  0  0  0
    0.6068    2.2847    1.5006 H   0  0  0  0  0  0
   -0.1024    1.3295    2.7835 H   0  0  0  0  0  0
    6.5087    1.6234    5.0818 H   0  0  0  0  0  0
    5.7087    0.4164    6.0947 H   0  0  0  0  0  0
    6.1231    0.0320    4.4167 H   0  0  0  0  0  0
    0.5073   -1.0846    4.6814 O   0  5  0  0  0  0
    0.9161    4.0787    3.8985 O   0  5  0  0  0  0
  1  2  1  0  0  0
  1  3  1  0  0  0
  1  4  1  0  0  0
  1 12  1  0  0  0
  2  5  1  0  0  0
  2 13  1  0  0  0
  2 14  1  0  0  0
  3  6  1  0  0  0
  3 15  1  0  0  0
  4  7  2  0  0  0
  4 21  1  0  0  0
  5  8  1  0  0  0
  5 16  1  0  0  0
  5 17  1  0  0  0
  6  9  1  0  0  0
  6 10  2  0  0  0
  8 11  2  0  0  0
  8 22  1  0  0  0
  9 18  1  0  0  0
  9 19  1  0  0  0
  9 20  1  0  0  0
M  CHG  2  21  -1  22  -1
M  END
> <i_ionizer_Ion_state_n>
3

> <i_ionizer_Tot_Q>
-2

> <s_ionizer_Ion_centers>
21_22

> <s_ionizer_Ion_types>
OM_OM

> <s_ionizer_Ion_ctrs_in>
7_12

> <r_ionizer_Ionization_penalty>
0.00118438

> <r_ionizer_Ionization_penalty_charging>
0.00118438

> <r_ionizer_Ionization_penalty_neutral>
0

> <s_st_Chirality_1>
1_S_3_4_2_12

> <i_mmod_Serial_Number-OPLS-2005>
296

> <i_i_glide_lignum>
294

> <r_i_docking_score>
-5.7238

> <r_i_glide_gscore>
-5.7238

> <r_i_glide_lipo>
-0.348911

> <r_i_glide_hbond>
-1.75213

> <r_i_glide_metal>
0

> <r_i_glide_eburp>
-2.37005

> <r_i_glide_evdw>
-18.333

> <r_i_glide_ecoul>
-6.6782

> <r_i_glide_erotb>
1.56303

> <r_i_glide_esite>
-0.681279

> <r_i_glide_emodel>
-59.9794

> <r_i_glide_energy>
-25.0112

> <r_i_glide_einternal>
3.89906

> <i_i_glide_confnum>
12

> <i_i_glide_posenum>
675

$$$$
C04257
                    3D
 Structure written by MMmdl.
 33 33  0  0  1  0            999 V2000
    3.3081   -0.3704    1.8257 C   0  0  1  0  0  0
    3.7345    0.2862    3.1562 C   0  0  2  0  0  0
    2.4269    0.6306    1.0406 C   0  0  2  0  0  0
    4.4706   -0.7886    1.0400 N   0  0  0  0  0  0
    2.5103    0.7709    3.9505 C   0  0  1  0  0  0
    4.6056    1.3724    2.9012 O   0  0  0  0  0  0
    1.3322    0.9986    1.8293 O   0  0  0  0  0  0
    2.0535    0.1019   -0.2134 O   0  0  0  0  0  0
    5.2788    0.0286    0.3501 C   0  0  0  0  0  0
    1.6262    1.6681    3.0569 C   0  0  2  0  0  0
    1.7621   -0.3692    4.3362 O   0  0  0  0  0  0
    6.4204   -0.6370   -0.4097 C   0  0  0  0  0  0
    5.1387    1.2503    0.3101 O   0  0  0  0  0  0
    2.3664    2.9910    2.7597 C   0  0  0  0  0  0
    1.5270    3.9506    2.1368 O   0  0  0  0  0  0
    0.1244    4.5450    3.0939 P   0  0  0  0  0  0
   -0.2906    3.3038    3.9199 O   0  0  0  0  0  0
    2.7105   -1.2560    2.0515 H   0  0  0  0  0  0
    4.2838   -0.4425    3.7549 H   0  0  0  0  0  0
    2.9817    1.5443    0.8255 H   0  0  0  0  0  0
    4.6522   -1.7806    1.0008 H   0  0  0  0  0  0
    2.8208    1.3209    4.8400 H   0  0  0  0  0  0
    4.1008    2.0466    2.4705 H   0  0  0  0  0  0
    2.8387   -0.1986   -0.6459 H   0  0  0  0  0  0
    0.6898    1.8618    3.5789 H   0  0  0  0  0  0
    1.7133   -0.9698    3.5961 H   0  0  0  0  0  0
    7.0172    0.1054   -0.9403 H   0  0  0  0  0  0
    7.0745   -1.1724    0.2789 H   0  0  0  0  0  0
    6.0295   -1.3463   -1.1397 H   0  0  0  0  0  0
    2.7715    3.4353    3.6691 H   0  0  0  0  0  0
    3.2303    2.8071    2.1209 H   0  0  0  0  0  0
    0.7666    5.6989    3.8939 O   0  5  0  0  0  0
   -0.8546    4.9621    1.9746 O   0  5  0  0  0  0
  1  2  1  0  0  0
  1  3  1  0  0  0
  1  4  1  0  0  0
  1 18  1  0  0  0
  2  5  1  0  0  0
  2  6  1  0  0  0
  2 19  1  0  0  0
  3  7  1  0  0  0
  3  8  1  0  0  0
  3 20  1  0  0  0
  4  9  1  0  0  0
  4 21  1  0  0  0
  5 10  1  0  0  0
  5 11  1  0  0  0
  5 22  1  0  0  0
  6 23  1  0  0  0
  7 10  1  0  0  0
  8 24  1  0  0  0
  9 12  1  0  0  0
  9 13  2  0  0  0
 10 14  1  0  0  0
 10 25  1  0  0  0
 11 26  1  0  0  0
 12 27  1  0  0  0
 12 28  1  0  0  0
 12 29  1  0  0  0
 14 15  1  0  0  0
 14 30  1  0  0  0
 14 31  1  0  0  0
 15 16  1  0  0  0
 16 17  2  0  0  0
 16 32  1  0  0  0
 16 33  1  0  0  0
M  CHG  2  32  -1  33  -1
M  END
> <i_ionizer_Ion_state_n>
3

> <i_ionizer_Tot_Q>
-2

> <s_ionizer_Ion_centers>
32_33

> <s_ionizer_Ion_types>
OM_OM

> <s_ionizer_Ion_ctrs_in>
17_18

> <r_ionizer_Ionization_penalty>
1.49178e-05

> <r_ionizer_Ionization_penalty_charging>
1.49178e-05

> <r_ionizer_Ionization_penalty_neutral>
0

> <s_st_Chirality_1>
1_S_4_3_2_18

> <s_st_Chirality_2>
2_R_6_5_1_19

> <s_st_Chirality_3>
3_S_7_8_1_20

> <s_st_Chirality_4>
5_S_11_10_2_22

> <s_st_Chirality_5>
10_R_7_5_14_25

> <i_mmod_Serial_Number-OPLS-2005>
586

> <i_i_glide_lignum>
580

> <r_i_docking_score>
-5.72123

> <r_i_glide_gscore>
-5.72123

> <r_i_glide_lipo>
-0.595643

> <r_i_glide_hbond>
-0.928047

> <r_i_glide_metal>
0

> <r_i_glide_eburp>
-1.52139

> <r_i_glide_evdw>
-30.5202

> <r_i_glide_ecoul>
-4.99565

> <r_i_glide_erotb>
0.703377

> <r_i_glide_esite>
-0.438346

> <r_i_glide_emodel>
-67.3215

> <r_i_glide_energy>
-35.5158

> <r_i_glide_einternal>
9.62758

> <i_i_glide_confnum>
26

> <i_i_glide_posenum>
969

$$$$
C06604
                    3D
 Structure written by MMmdl.
 32 32  0  0  1  0            999 V2000
    5.1783    0.2435    0.7216 P   0  0  0  0  0  0
    4.6556    1.7844    0.6122 O   0  0  0  0  0  0
    6.6651    0.3568    0.0595 O   0  0  0  0  0  0
    5.5159    0.0998    2.3122 O   0  0  0  0  0  0
    3.9796   -1.1008   -0.0639 S   0  0  0  0  0  0
    3.5640    2.3643    1.2126 C   0  0  0  0  0  0
    7.4539   -0.7687   -0.3008 C   0  0  0  0  0  0
    4.5232    0.0514    3.3277 C   0  0  0  0  0  0
    3.4723    3.7691    1.1826 C   0  0  0  0  0  0
    2.5366    1.6252    1.8425 C   0  0  0  0  0  0
    6.6848   -1.8058   -1.1306 C   0  0  0  0  0  0
    5.0714    0.3680    4.7259 C   0  0  0  0  0  0
    2.3780    4.4311    1.7714 C   0  0  0  0  0  0
    1.4416    2.2861    2.4317 C   0  0  0  0  0  0
    1.3488    3.6967    2.4037 C   0  0  0  0  0  0
    0.2001    4.3884    3.0216 N   0  3  0  0  0  0
   -0.7004    3.7058    3.4995 O   0  0  0  0  0  0
    0.1970    5.6153    3.0301 O   0  5  0  0  0  0
    8.3429   -0.4377   -0.8383 H   0  0  0  0  0  0
    7.8064   -1.2324    0.6206 H   0  0  0  0  0  0
    3.7087    0.7315    3.0774 H   0  0  0  0  0  0
    4.0969   -0.9517    3.3251 H   0  0  0  0  0  0
    4.2494    4.3454    0.7022 H   0  0  0  0  0  0
    2.5675    0.5475    1.8848 H   0  0  0  0  0  0
    7.2931   -2.6955   -1.2940 H   0  0  0  0  0  0
    5.7718   -2.1149   -0.6214 H   0  0  0  0  0  0
    6.4115   -1.4157   -2.1109 H   0  0  0  0  0  0
    4.2939    0.2458    5.4801 H   0  0  0  0  0  0
    5.8925   -0.3004    4.9850 H   0  0  0  0  0  0
    5.4332    1.3936    4.7958 H   0  0  0  0  0  0
    2.3377    5.5098    1.7315 H   0  0  0  0  0  0
    0.6715    1.6957    2.9063 H   0  0  0  0  0  0
  1  2  1  0  0  0
  1  3  1  0  0  0
  1  4  1  0  0  0
  1  5  2  0  0  0
  2  6  1  0  0  0
  3  7  1  0  0  0
  4  8  1  0  0  0
  6  9  1  0  0  0
  6 10  2  0  0  0
  7 11  1  0  0  0
  7 19  1  0  0  0
  7 20  1  0  0  0
  8 12  1  0  0  0
  8 21  1  0  0  0
  8 22  1  0  0  0
  9 13  2  0  0  0
  9 23  1  0  0  0
 10 14  1  0  0  0
 10 24  1  0  0  0
 11 25  1  0  0  0
 11 26  1  0  0  0
 11 27  1  0  0  0
 12 28  1  0  0  0
 12 29  1  0  0  0
 12 30  1  0  0  0
 13 15  1  0  0  0
 13 31  1  0  0  0
 14 15  2  0  0  0
 14 32  1  0  0  0
 15 16  1  0  0  0
 16 17  2  0  0  0
 16 18  1  0  0  0
M  CHG  2  16   1  18  -1
M  END
> <i_ionizer_Ion_state_n>
0

> <i_ionizer_Tot_Q>
0

> <s_ionizer_Ion_centers>


> <s_ionizer_Ion_types>


> <s_ionizer_Ion_ctrs_in>


> <r_ionizer_Ionization_penalty>
0

> <r_ionizer_Ionization_penalty_charging>
0

> <r_ionizer_Ionization_penalty_neutral>
0

> <i_mmod_Serial_Number-OPLS-2005>
875

> <i_i_glide_lignum>
863

> <r_i_docking_score>
-5.71669

> <r_i_glide_gscore>
-5.71669

> <r_i_glide_lipo>
-0.952799

> <r_i_glide_hbond>
-0.728284

> <r_i_glide_metal>
0

> <r_i_glide_eburp>
-1.58133

> <r_i_glide_evdw>
-28.863

> <r_i_glide_ecoul>
-4.65831

> <r_i_glide_erotb>
0.982788

> <r_i_glide_esite>
-0.662199

> <r_i_glide_emodel>
-47.4256

> <r_i_glide_energy>
-33.5213

> <r_i_glide_einternal>
3.48779

> <i_i_glide_confnum>
7

> <i_i_glide_posenum>
765

$$$$
C06198
                    3D
 Structure written by MMmdl.
 71 74  0  0  1  0            999 V2000
   -3.5981   14.0943    5.6722 C   0  0  2  0  0  0
   -2.9405   14.3852    6.9980 N   0  0  0  0  0  0
   -3.6342   12.7095    5.4799 O   0  0  0  0  0  0
   -2.7940   14.7176    4.5190 C   0  0  1  0  0  0
   -1.6734   13.8288    7.2679 C   0  0  0  0  0  0
   -3.5690   15.1548    7.9676 C   0  0  0  0  0  0
   -3.2035   12.4091    4.1583 C   0  0  1  0  0  0
   -2.1663   13.4939    3.8684 C   0  0  1  0  0  0
   -3.6396   15.4147    3.6222 O   0  0  0  0  0  0
   -1.1000   14.1266    8.5036 N   0  0  0  0  0  0
   -1.0768   13.1083    6.4689 O   0  0  0  0  0  0
   -3.0043   15.4349    9.1660 C   0  0  0  0  0  0
   -2.7538   10.9393    4.0488 C   0  0  0  0  0  0
   -1.9072   13.6776    2.4884 O   0  0  0  0  0  0
   -1.6817   14.9154    9.4995 C   0  0  0  0  0  0
   -3.7852    9.9980    4.2993 O   0  0  0  0  0  0
   -1.0772   15.1245   10.5488 O   0  0  0  0  0  0
   -3.4733    8.3269    4.4852 P   0  0  0  0  0  0
   -3.3574    7.7387    2.8960 O   0  0  0  0  0  0
   -2.1597    8.1831    5.1500 O   0  0  0  0  0  0
   -2.0702    7.3074    1.8736 P   0  0  0  0  0  0
   -1.4478    5.9266    2.6351 O   0  0  0  0  0  0
   -2.6284    6.9031    0.5643 O   0  0  0  0  0  0
    0.0256    5.6073    3.4086 P   0  0  0  0  0  0
    1.2240    6.0852    2.3013 O   0  0  0  0  0  0
    0.1227    6.5000    4.5864 O   0  0  0  0  0  0
    1.9110    5.4601    0.8778 P   0  0  0  0  0  0
    1.9193    3.7650    1.0815 O   0  0  0  0  0  0
    0.9806    5.7633   -0.2334 O   0  0  0  0  0  0
    2.5127    3.1219    2.1931 C   0  0  0  0  0  0
    2.1560    1.6249    2.2406 C   0  0  1  0  0  0
    2.4581    0.9925    1.0008 O   0  0  0  0  0  0
    2.9772    0.8423    3.2680 C   0  0  2  0  0  0
    2.9715   -0.2912    1.1826 C   0  0  2  0  0  0
    3.0244   -0.5664    2.6914 C   0  0  2  0  0  0
    2.4250    0.8757    4.5703 O   0  0  0  0  0  0
    4.3587   -0.3641    0.5845 N   0  0  0  0  0  0
    1.9385   -1.3803    3.0995 O   0  0  0  0  0  0
    5.1987    0.7628    0.6982 C   0  0  0  0  0  0
    4.8252   -1.4981   -0.0702 C   0  0  0  0  0  0
    6.4737    0.6654    0.1411 N   0  0  0  0  0  0
    4.8431    1.8020    1.2528 O   0  0  0  0  0  0
    6.0647   -1.5818   -0.6079 C   0  0  0  0  0  0
    6.9860   -0.4535   -0.5214 C   0  0  0  0  0  0
    8.1275   -0.4314   -0.9764 O   0  0  0  0  0  0
   -4.6204   14.4691    5.7479 H   0  0  0  0  0  0
   -2.0320   15.3998    4.8908 H   0  0  0  0  0  0
   -4.5547   15.5518    7.7737 H   0  0  0  0  0  0
   -4.0725   12.5552    3.5139 H   0  0  0  0  0  0
   -1.2347   13.2723    4.3891 H   0  0  0  0  0  0
   -4.2314   14.7799    3.2454 H   0  0  0  0  0  0
   -0.1929   13.7320    8.7004 H   0  0  0  0  0  0
   -3.5398   16.0357    9.8872 H   0  0  0  0  0  0
   -2.3407   10.7510    3.0579 H   0  0  0  0  0  0
   -1.9358   10.7579    4.7464 H   0  0  0  0  0  0
   -1.9045   12.8165    2.0803 H   0  0  0  0  0  0
    3.5905    3.2667    2.1892 H   0  0  0  0  0  0
    2.1391    3.6207    3.0866 H   0  0  0  0  0  0
    1.0919    1.4881    2.4367 H   0  0  0  0  0  0
    3.9932    1.2393    3.3010 H   0  0  0  0  0  0
    2.3739   -1.0067    0.6148 H   0  0  0  0  0  0
    3.9472   -1.0782    2.9677 H   0  0  0  0  0  0
    2.8870    0.2512    5.1077 H   0  0  0  0  0  0
    1.9872   -1.4970    4.0361 H   0  0  0  0  0  0
    4.1925   -2.3662   -0.1685 H   0  0  0  0  0  0
    7.0768    1.4701    0.2222 H   0  0  0  0  0  0
    6.3739   -2.4907   -1.1042 H   0  0  0  0  0  0
   -4.6650    7.6960    5.1013 O   0  5  0  0  0  0
   -1.0482    8.3764    1.9361 O   0  5  0  0  0  0
    0.1197    4.1431    3.6196 O   0  5  0  0  0  0
    3.3044    5.9513    0.7950 O   0  5  0  0  0  0
  1  2  1  0  0  0
  1  3  1  0  0  0
  1  4  1  0  0  0
  1 46  1  0  0  0
  2  5  1  0  0  0
  2  6  1  0  0  0
  3  7  1  0  0  0
  4  8  1  0  0  0
  4  9  1  0  0  0
  4 47  1  0  0  0
  5 10  1  0  0  0
  5 11  2  0  0  0
  6 12  2  0  0  0
  6 48  1  0  0  0
  7 13  1  0  0  0
  7  8  1  0  0  0
  7 49  1  0  0  0
  8 14  1  0  0  0
  8 50  1  0  0  0
  9 51  1  0  0  0
 10 15  1  0  0  0
 10 52  1  0  0  0
 12 15  1  0  0  0
 12 53  1  0  0  0
 13 16  1  0  0  0
 13 54  1  0  0  0
 13 55  1  0  0  0
 14 56  1  0  0  0
 15 17  2  0  0  0
 16 18  1  0  0  0
 18 19  1  0  0  0
 18 20  2  0  0  0
 18 68  1  0  0  0
 19 21  1  0  0  0
 21 22  1  0  0  0
 21 23  2  0  0  0
 21 69  1  0  0  0
 22 24  1  0  0  0
 24 25  1  0  0  0
 24 26  2  0  0  0
 24 70  1  0  0  0
 25 27  1  0  0  0
 27 28  1  0  0  0
 27 29  2  0  0  0
 27 71  1  0  0  0
 28 30  1  0  0  0
 30 31  1  0  0  0
 30 57  1  0  0  0
 30 58  1  0  0  0
 31 32  1  0  0  0
 31 33  1  0  0  0
 31 59  1  0  0  0
 32 34  1  0  0  0
 33 35  1  0  0  0
 33 36  1  0  0  0
 33 60  1  0  0  0
 34 37  1  0  0  0
 34 35  1  0  0  0
 34 61  1  0  0  0
 35 38  1  0  0  0
 35 62  1  0  0  0
 36 63  1  0  0  0
 37 39  1  0  0  0
 37 40  1  0  0  0
 38 64  1  0  0  0
 39 41  1  0  0  0
 39 42  2  0  0  0
 40 43  2  0  0  0
 40 65  1  0  0  0
 41 44  1  0  0  0
 41 66  1  0  0  0
 43 44  1  0  0  0
 43 67  1  0  0  0
 44 45  2  0  0  0
M  CHG  4  68  -1  69  -1  70  -1  71  -1
M  END
> <i_ionizer_Ion_state_n>
15

> <i_ionizer_Tot_Q>
-4

> <s_ionizer_Ion_centers>
68_69_70_71

> <s_ionizer_Ion_types>
OM_OM_OM_OM

> <s_ionizer_Ion_ctrs_in>
20_24_28_32

> <r_ionizer_Ionization_penalty>
2.98356e-05

> <r_ionizer_Ionization_penalty_charging>
2.98356e-05

> <r_ionizer_Ionization_penalty_neutral>
0

> <s_st_Chirality_1>
1_R_3_2_4_46

> <s_st_Chirality_2>
4_R_9_1_8_47

> <s_st_Chirality_3>
7_R_3_8_13_49

> <s_st_Chirality_4>
8_R_14_4_7_50

> <s_st_Chirality_5>
31_R_32_33_30_59

> <s_st_Chirality_6>
33_R_36_35_31_60

> <s_st_Chirality_7>
34_R_32_37_35_61

> <s_st_Chirality_8>
35_R_38_34_33_62

> <i_mmod_Serial_Number-OPLS-2005>
865

> <i_i_glide_lignum>
853

> <r_i_docking_score>
-5.71541

> <r_i_glide_gscore>
-5.71541

> <r_i_glide_lipo>
-0.844067

> <r_i_glide_hbond>
-2.05162

> <r_i_glide_metal>
0

> <r_i_glide_eburp>
0.0516167

> <r_i_glide_evdw>
-39.3198

> <r_i_glide_ecoul>
-1.0307

> <r_i_glide_erotb>
0.332459

> <r_i_glide_esite>
0.0448541

> <r_i_glide_emodel>
-92.0439

> <r_i_glide_energy>
-40.3505

> <r_i_glide_einternal>
5.94061

> <i_i_glide_confnum>
844

> <i_i_glide_posenum>
132

$$$$
C00082
                    3D
 Structure written by MMmdl.
 24 24  0  0  1  0            999 V2000
    2.3062    0.7875    4.4937 C   0  0  2  0  0  0
    1.1371    1.1096    3.5458 C   0  0  0  0  0  0
    3.6211    1.5206    4.1320 C   0  0  0  0  0  0
    0.8547    0.3044    2.6306 O   0  0  0  0  0  0
    4.1900    1.0801    2.7940 C   0  0  0  0  0  0
    5.2043    0.1006    2.7384 C   0  0  0  0  0  0
    3.7063    1.6520    1.5985 C   0  0  0  0  0  0
    5.7331   -0.3004    1.4961 C   0  0  0  0  0  0
    4.2350    1.2506    0.3562 C   0  0  0  0  0  0
    5.2495    0.2743    0.3045 C   0  0  0  0  0  0
    5.7647   -0.1164   -0.8969 O   0  0  0  0  0  0
    2.0028    1.0889    5.4976 H   0  0  0  0  0  0
    3.4671    2.6010    4.1166 H   0  0  0  0  0  0
    4.3784    1.3323    4.8950 H   0  0  0  0  0  0
    1.6221   -1.1102    4.7652 H   0  0  0  0  0  0
    2.7587   -0.9800    3.5793 H   0  0  0  0  0  0
    5.5809   -0.3475    3.6463 H   0  0  0  0  0  0
    2.9284    2.4011    1.6312 H   0  0  0  0  0  0
    6.5096   -1.0505    1.4587 H   0  0  0  0  0  0
    3.8586    1.6947   -0.5538 H   0  0  0  0  0  0
    5.1136   -0.1816   -1.5785 H   0  0  0  0  0  0
    2.4949   -0.6735    4.5045 N   0  3  0  0  0  0
    3.2158   -0.9190    5.1673 H   0  0  0  0  0  0
    0.5190    2.1735    3.7722 O   0  5  0  0  0  0
  1  2  1  0  0  0
  1  3  1  0  0  0
  1 12  1  0  0  0
  1 22  1  0  0  0
  2  4  2  0  0  0
  2 24  1  0  0  0
  3  5  1  0  0  0
  3 13  1  0  0  0
  3 14  1  0  0  0
  5  6  1  0  0  0
  5  7  2  0  0  0
  6  8  2  0  0  0
  6 17  1  0  0  0
  7  9  1  0  0  0
  7 18  1  0  0  0
  8 10  1  0  0  0
  8 19  1  0  0  0
  9 10  2  0  0  0
  9 20  1  0  0  0
 10 11  1  0  0  0
 11 21  1  0  0  0
 15 22  1  0  0  0
 16 22  1  0  0  0
 22 23  1  0  0  0
M  CHG  2  22   1  24  -1
M  END
> <i_ionizer_Ion_state_n>
3

> <i_ionizer_Tot_Q>
0

> <s_ionizer_Ion_centers>
22_24

> <s_ionizer_Ion_types>
N5_OM

> <s_ionizer_Ion_ctrs_in>
4_5

> <r_ionizer_Ionization_penalty>
0.00137171

> <r_ionizer_Ionization_penalty_charging>
0.000779521

> <r_ionizer_Ionization_penalty_neutral>
0.00059219

> <s_st_Chirality_1>
1_S_22_2_3_12

> <i_mmod_Serial_Number-OPLS-2005>
57

> <i_i_glide_lignum>
56

> <r_i_docking_score>
-5.70911

> <r_i_glide_gscore>
-5.70911

> <r_i_glide_lipo>
-0.715331

> <r_i_glide_hbond>
-0.923786

> <r_i_glide_metal>
0

> <r_i_glide_eburp>
-2.41521

> <r_i_glide_evdw>
-11.9202

> <r_i_glide_ecoul>
-9.75769

> <r_i_glide_erotb>
1.09911

> <r_i_glide_esite>
-0.824519

> <r_i_glide_emodel>
-42.427

> <r_i_glide_energy>
-21.6779

> <r_i_glide_einternal>
4.23942

> <i_i_glide_confnum>
5

> <i_i_glide_posenum>
6

$$$$
C01494
                    3D
 Structure written by MMmdl.
 23 23  0  0  1  0            999 V2000
    1.4840    2.0609    3.3526 C   0  0  0  0  0  0
    2.6924    2.7768    3.4997 C   0  0  0  0  0  0
    1.4730    0.6747    3.6271 C   0  0  0  0  0  0
    0.2796    2.7914    2.9172 C   0  0  0  0  0  0
    3.8842    2.1299    3.9153 C   0  0  0  0  0  0
    2.6485    0.0217    4.0400 C   0  0  0  0  0  0
    0.1576    4.1221    2.7613 C   0  0  0  0  0  0
    3.8463    0.7454    4.1830 C   0  0  0  0  0  0
    5.0951    2.7718    4.0778 O   0  0  0  0  0  0
   -1.1440    4.8175    2.2992 C   0  0  0  0  0  0
    4.9795    0.0996    4.5843 O   0  0  0  0  0  0
    5.1042    4.1917    4.1011 C   0  0  0  0  0  0
   -1.0294    6.0111    1.9466 O   0  0  0  0  0  0
    2.6841    3.8348    3.2861 H   0  0  0  0  0  0
    0.5701    0.0928    3.5265 H   0  0  0  0  0  0
   -0.5883    2.1832    2.7045 H   0  0  0  0  0  0
    2.6290   -1.0382    4.2472 H   0  0  0  0  0  0
    0.9937    4.7730    2.9605 H   0  0  0  0  0  0
    4.7924   -0.7656    4.9164 H   0  0  0  0  0  0
    6.1274    4.5424    4.2354 H   0  0  0  0  0  0
    4.7338    4.6084    3.1636 H   0  0  0  0  0  0
    4.5114    4.5808    4.9300 H   0  0  0  0  0  0
   -2.1723    4.1069    2.3005 O   0  5  0  0  0  0
  1  2  1  0  0  0
  1  3  2  0  0  0
  1  4  1  0  0  0
  2  5  2  0  0  0
  2 14  1  0  0  0
  3  6  1  0  0  0
  3 15  1  0  0  0
  4  7  2  0  0  0
  4 16  1  0  0  0
  5  8  1  0  0  0
  5  9  1  0  0  0
  6  8  2  0  0  0
  6 17  1  0  0  0
  7 10  1  0  0  0
  7 18  1  0  0  0
  8 11  1  0  0  0
  9 12  1  0  0  0
 10 13  2  0  0  0
 10 23  1  0  0  0
 11 19  1  0  0  0
 12 20  1  0  0  0
 12 21  1  0  0  0
 12 22  1  0  0  0
M  CHG  1  23  -1
M  END
> <i_ionizer_Ion_state_n>
2

> <i_ionizer_Tot_Q>
-1

> <s_ionizer_Ion_centers>
23

> <s_ionizer_Ion_types>
OM

> <s_ionizer_Ion_ctrs_in>
13

> <r_ionizer_Ionization_penalty>
0.00118438

> <r_ionizer_Ionization_penalty_charging>
0.00059219

> <r_ionizer_Ionization_penalty_neutral>
0.00059219

> <s_st_EZ_1>
1_4_7_10_E

> <i_mmod_Serial_Number-OPLS-2005>
448

> <i_i_glide_lignum>
444

> <r_i_docking_score>
-5.70748

> <r_i_glide_gscore>
-5.70748

> <r_i_glide_lipo>
-0.811985

> <r_i_glide_hbond>
-1.15

> <r_i_glide_metal>
0

> <r_i_glide_eburp>
-2.32439

> <r_i_glide_evdw>
-16.8997

> <r_i_glide_ecoul>
-7.15856

> <r_i_glide_erotb>
0.988754

> <r_i_glide_esite>
-0.342036

> <r_i_glide_emodel>
-44.5747

> <r_i_glide_energy>
-24.0582

> <r_i_glide_einternal>
1.88154

> <i_i_glide_confnum>
2

> <i_i_glide_posenum>
778

$$$$
C02442
                    3D
 Structure written by MMmdl.
 25 25  0  0  1  0            999 V2000
    3.8211    0.4610    1.6676 C   0  0  0  0  0  0
    4.2457    0.4443    3.0129 C   0  0  0  0  0  0
    2.4981    0.0890    1.3483 C   0  0  0  0  0  0
    4.7839    0.8711    0.5698 C   0  0  0  0  0  0
    3.3528    0.0590    4.0318 C   0  0  0  0  0  0
    1.6053   -0.2960    2.3676 C   0  0  0  0  0  0
    5.8192   -0.2224    0.2726 C   0  0  0  0  0  0
    2.0324   -0.3111    3.7102 C   0  0  0  0  0  0
    1.1704   -0.6838    4.7000 O   0  0  0  0  0  0
    6.2089   -2.1670   -1.2047 C   0  0  0  0  0  0
    5.2569    0.7256    3.2685 H   0  0  0  0  0  0
    2.1632    0.0968    0.3213 H   0  0  0  0  0  0
    4.2152    1.1060   -0.3311 H   0  0  0  0  0  0
    5.2854    1.7939    0.8654 H   0  0  0  0  0  0
    3.6827    0.0480    5.0604 H   0  0  0  0  0  0
    0.5941   -0.5791    2.1141 H   0  0  0  0  0  0
    6.6539    0.1978   -0.2906 H   0  0  0  0  0  0
    6.2251   -0.6149    1.2062 H   0  0  0  0  0  0
    1.5725   -0.7107    5.5546 H   0  0  0  0  0  0
    5.7021   -2.9615   -1.7528 H   0  0  0  0  0  0
    6.7829   -1.5738   -1.9174 H   0  0  0  0  0  0
    6.9009   -2.6278   -0.4988 H   0  0  0  0  0  0
    5.2206   -1.3289   -0.4998 N   0  3  0  0  0  0
    4.6947   -1.9159    0.1324 H   0  0  0  0  0  0
    4.5855   -0.9393   -1.1820 H   0  0  0  0  0  0
  1  2  1  0  0  0
  1  3  2  0  0  0
  1  4  1  0  0  0
  2  5  2  0  0  0
  2 11  1  0  0  0
  3  6  1  0  0  0
  3 12  1  0  0  0
  4  7  1  0  0  0
  4 13  1  0  0  0
  4 14  1  0  0  0
  5  8  1  0  0  0
  5 15  1  0  0  0
  6  8  2  0  0  0
  6 16  1  0  0  0
  7 17  1  0  0  0
  7 18  1  0  0  0
  7 23  1  0  0  0
  8  9  1  0  0  0
  9 19  1  0  0  0
 10 20  1  0  0  0
 10 21  1  0  0  0
 10 22  1  0  0  0
 10 23  1  0  0  0
 23 24  1  0  0  0
 23 25  1  0  0  0
M  CHG  1  23   1
M  END
> <i_ionizer_Ion_state_n>
1

> <i_ionizer_Tot_Q>
1

> <s_ionizer_Ion_centers>
23

> <s_ionizer_Ion_types>
N5

> <s_ionizer_Ion_ctrs_in>
9

> <r_ionizer_Ionization_penalty>
0.000651435

> <r_ionizer_Ionization_penalty_charging>
5.92456e-05

> <r_ionizer_Ionization_penalty_neutral>
0.00059219

> <i_mmod_Serial_Number-OPLS-2005>
490

> <i_i_glide_lignum>
485

> <r_i_docking_score>
-5.69687

> <r_i_glide_gscore>
-5.69687

> <r_i_glide_lipo>
-0.939936

> <r_i_glide_hbond>
-0.833676

> <r_i_glide_metal>
0

> <r_i_glide_eburp>
-2.5

> <r_i_glide_evdw>
-21.8545

> <r_i_glide_ecoul>
-5.14642

> <r_i_glide_erotb>
1.45863

> <r_i_glide_esite>
-0.618894

> <r_i_glide_emodel>
-38.8865

> <r_i_glide_energy>
-27.0009

> <r_i_glide_einternal>
3.10362

> <i_i_glide_confnum>
2

> <i_i_glide_posenum>
254

$$$$
C00146
                    3D
 Structure written by MMmdl.
 13 13  0  0  1  0            999 V2000
    3.5490    0.0462    3.6568 C   0  0  0  0  0  0
    3.4088    0.6301    2.3820 C   0  0  0  0  0  0
    2.4479   -0.5907    4.2641 C   0  0  0  0  0  0
    4.7509    0.0988    4.3005 O   0  0  0  0  0  0
    2.1691    0.5774    1.7148 C   0  0  0  0  0  0
    1.2084   -0.6431    3.5964 C   0  0  0  0  0  0
    1.0688   -0.0592    2.3220 C   0  0  0  0  0  0
    4.2511    1.1188    1.9145 H   0  0  0  0  0  0
    2.5486   -1.0403    5.2411 H   0  0  0  0  0  0
    4.8448   -0.5633    4.9679 H   0  0  0  0  0  0
    2.0625    1.0252    0.7378 H   0  0  0  0  0  0
    0.3647   -1.1312    4.0618 H   0  0  0  0  0  0
    0.1184   -0.0995    1.8104 H   0  0  0  0  0  0
  1  2  2  0  0  0
  1  3  1  0  0  0
  1  4  1  0  0  0
  2  5  1  0  0  0
  2  8  1  0  0  0
  3  6  2  0  0  0
  3  9  1  0  0  0
  4 10  1  0  0  0
  5  7  2  0  0  0
  5 11  1  0  0  0
  6  7  1  0  0  0
  6 12  1  0  0  0
  7 13  1  0  0  0
M  END
> <i_ionizer_Ion_state_n>
0

> <i_ionizer_Tot_Q>
0

> <s_ionizer_Ion_centers>


> <s_ionizer_Ion_types>


> <s_ionizer_Ion_ctrs_in>


> <r_ionizer_Ionization_penalty>
0.00059219

> <r_ionizer_Ionization_penalty_charging>
0

> <r_ionizer_Ionization_penalty_neutral>
0.00059219

> <i_mmod_Serial_Number-OPLS-2005>
106

> <i_i_glide_lignum>
104

> <r_i_docking_score>
-5.69332

> <r_i_glide_gscore>
-5.69332

> <r_i_glide_lipo>
-0.655975

> <r_i_glide_hbond>
-0.45

> <r_i_glide_metal>
0

> <r_i_glide_eburp>
-2.5

> <r_i_glide_evdw>
-13.6928

> <r_i_glide_ecoul>
-4.85131

> <r_i_glide_erotb>
0

> <r_i_glide_esite>
-0.506794

> <r_i_glide_emodel>
-22.9806

> <r_i_glide_energy>
-18.5441

> <r_i_glide_einternal>
0.439254

> <i_i_glide_confnum>
1

> <i_i_glide_posenum>
564

$$$$
C00665
                    3D
 Structure written by MMmdl.
 30 30  0  0  1  0            999 V2000
    3.4764    0.6282    2.4777 C   0  0  1  0  0  0
    4.4826    0.4745    1.3265 C   0  0  2  0  0  0
    3.7477    1.9811    2.8386 O   0  0  0  0  0  0
    2.1858    0.4427    1.8867 O   0  0  0  0  0  0
    3.8281   -0.3484    3.6263 C   0  0  0  0  0  0
    4.3313    1.7731    0.5587 C   0  0  1  0  0  0
    4.2504   -0.6747    0.5334 O   0  0  0  0  0  0
    4.0206    2.7765    1.6816 C   0  0  1  0  0  0
    0.7481    0.1679    2.9288 P   0  0  0  0  0  0
    5.1607   -0.2264    4.0727 O   0  0  0  0  0  0
    5.5444    2.0980   -0.0925 O   0  0  0  0  0  0
    2.8159    3.6895    1.3798 C   0  0  0  0  0  0
    1.2491   -0.9300    3.8941 O   0  0  0  0  0  0
    1.6060    3.2484    1.9854 O   0  0  0  0  0  0
    0.5423    4.4950    2.7196 P   0  0  0  0  0  0
   -0.7248    3.6964    3.0990 O   0  0  0  0  0  0
    5.4942    0.4152    1.7329 H   0  0  0  0  0  0
    3.1543   -0.1950    4.4694 H   0  0  0  0  0  0
    3.6978   -1.3801    3.2995 H   0  0  0  0  0  0
    3.5081    1.7196   -0.1558 H   0  0  0  0  0  0
    4.6574   -0.5318   -0.3069 H   0  0  0  0  0  0
    4.8979    3.3759    1.9260 H   0  0  0  0  0  0
    5.2846   -0.8729    4.7607 H   0  0  0  0  0  0
    6.2633    1.8175    0.4707 H   0  0  0  0  0  0
    3.0165    4.6966    1.7451 H   0  0  0  0  0  0
    2.6737    3.7841    0.3032 H   0  0  0  0  0  0
    0.5010    1.5534    3.5626 O   0  5  0  0  0  0
   -0.3001   -0.2893    1.8909 O   0  5  0  0  0  0
    1.4108    4.9884    3.8988 O   0  5  0  0  0  0
    0.3809    5.4900    1.5495 O   0  5  0  0  0  0
  1  2  1  0  0  0
  1  3  1  0  0  0
  1  4  1  0  0  0
  1  5  1  0  0  0
  2  6  1  0  0  0
  2  7  1  0  0  0
  2 17  1  0  0  0
  3  8  1  0  0  0
  4  9  1  0  0  0
  5 10  1  0  0  0
  5 18  1  0  0  0
  5 19  1  0  0  0
  6 11  1  0  0  0
  6  8  1  0  0  0
  6 20  1  0  0  0
  7 21  1  0  0  0
  8 12  1  0  0  0
  8 22  1  0  0  0
  9 13  2  0  0  0
  9 27  1  0  0  0
  9 28  1  0  0  0
 10 23  1  0  0  0
 11 24  1  0  0  0
 12 14  1  0  0  0
 12 25  1  0  0  0
 12 26  1  0  0  0
 14 15  1  0  0  0
 15 16  2  0  0  0
 15 29  1  0  0  0
 15 30  1  0  0  0
M  CHG  4  27  -1  28  -1  29  -1  30  -1
M  END
> <i_ionizer_Ion_state_n>
15

> <i_ionizer_Tot_Q>
-4

> <s_ionizer_Ion_centers>
27_28_29_30

> <s_ionizer_Ion_types>
OM_OM_OM_OM

> <s_ionizer_Ion_ctrs_in>
13_14_18_19

> <r_ionizer_Ionization_penalty>
2.98356e-05

> <r_ionizer_Ionization_penalty_charging>
2.98356e-05

> <r_ionizer_Ionization_penalty_neutral>
0

> <s_st_Chirality_1>
1_S_4_3_2_5

> <s_st_Chirality_2>
2_S_7_1_6_17

> <s_st_Chirality_3>
6_R_11_2_8_20

> <s_st_Chirality_4>
8_R_3_6_12_22

> <i_mmod_Serial_Number-OPLS-2005>
312

> <i_i_glide_lignum>
310

> <r_i_docking_score>
-5.6932

> <r_i_glide_gscore>
-5.6932

> <r_i_glide_lipo>
-0.411611

> <r_i_glide_hbond>
-1.49832

> <r_i_glide_metal>
0

> <r_i_glide_eburp>
-1.24177

> <r_i_glide_evdw>
-18.6414

> <r_i_glide_ecoul>
-11.5064

> <r_i_glide_erotb>
0.764176

> <r_i_glide_esite>
-0.663733

> <r_i_glide_emodel>
-77.7074

> <r_i_glide_energy>
-30.1478

> <r_i_glide_einternal>
9.71433

> <i_i_glide_confnum>
12

> <i_i_glide_posenum>
95

$$$$
C06002
                    3D
 Structure written by MMmdl.
 12 11  0  0  1  0            999 V2000
    1.2267    0.7289    3.7059 C   0  0  2  0  0  0
    0.9008   -0.3000    2.6114 C   0  0  0  0  0  0
    0.8896    2.1259    3.1723 C   0  0  0  0  0  0
    2.6907    0.6201    4.1850 C   0  0  0  0  0  0
   -0.2438   -0.2847    2.1050 O   0  0  0  0  0  0
    0.1914    2.9063    3.8191 O   0  0  0  0  0  0
    0.5691    0.5295    4.5528 H   0  0  0  0  0  0
    1.2890    2.3743    2.1882 H   0  0  0  0  0  0
    2.8501    1.2083    5.0892 H   0  0  0  0  0  0
    2.9561   -0.4111    4.4214 H   0  0  0  0  0  0
    3.3919    0.9779    3.4295 H   0  0  0  0  0  0
    1.8123   -1.0978    2.2986 O   0  5  0  0  0  0
  1  2  1  0  0  0
  1  3  1  0  0  0
  1  4  1  0  0  0
  1  7  1  0  0  0
  2  5  2  0  0  0
  2 12  1  0  0  0
  3  6  2  0  0  0
  3  8  1  0  0  0
  4  9  1  0  0  0
  4 10  1  0  0  0
  4 11  1  0  0  0
M  CHG  1  12  -1
M  END
> <i_ionizer_Ion_state_n>
1

> <i_ionizer_Tot_Q>
-1

> <s_ionizer_Ion_centers>
12

> <s_ionizer_Ion_types>
OM

> <s_ionizer_Ion_ctrs_in>
5

> <r_ionizer_Ionization_penalty>
0.00059219

> <r_ionizer_Ionization_penalty_charging>
0.00059219

> <r_ionizer_Ionization_penalty_neutral>
0

> <s_st_Chirality_1>
1_S_2_3_4_7

> <i_mmod_Serial_Number-OPLS-2005>
847

> <i_i_glide_lignum>
835

> <r_i_docking_score>
-5.68968

> <r_i_glide_gscore>
-5.68968

> <r_i_glide_lipo>
-0.205826

> <r_i_glide_hbond>
-0.764562

> <r_i_glide_metal>
0

> <r_i_glide_eburp>
-2.5

> <r_i_glide_evdw>
-12.8497

> <r_i_glide_ecoul>
-5.22856

> <r_i_glide_erotb>
0

> <r_i_glide_esite>
-0.668466

> <r_i_glide_emodel>
-31.671

> <r_i_glide_energy>
-18.0782

> <r_i_glide_einternal>
1.18949

> <i_i_glide_confnum>
1

> <i_i_glide_posenum>
462

$$$$
C00364
                    3D
 Structure written by MMmdl.
 34 35  0  0  1  0            999 V2000
    2.4350   -0.5570    2.2874 C   0  0  2  0  0  0
    3.6982   -0.2126    1.5238 N   0  0  0  0  0  0
    1.4125    0.3825    1.9900 O   0  0  0  0  0  0
    2.6755   -0.4439    3.7881 C   0  0  0  0  0  0
    4.2173    1.0938    1.6322 C   0  0  0  0  0  0
    4.3410   -1.1313    0.7037 C   0  0  0  0  0  0
    0.7499    0.8157    3.1704 C   0  0  1  0  0  0
    1.3314   -0.0088    4.3287 C   0  0  1  0  0  0
    5.3738    1.3787    0.9108 N   0  0  0  0  0  0
    3.6904    1.9667    2.3206 O   0  0  0  0  0  0
    5.4661   -0.8531   -0.0033 C   0  0  0  0  0  0
    0.8880    2.3331    3.3938 C   0  0  0  0  0  0
    0.5138   -1.1172    4.6370 O   0  0  0  0  0  0
    6.0568    0.4849    0.0841 C   0  0  0  0  0  0
    6.1429   -1.8813   -0.8948 C   0  0  0  0  0  0
    0.3380    3.0557    2.3040 O   0  0  0  0  0  0
    7.0725    0.8563   -0.5013 O   0  0  0  0  0  0
    0.0722    4.8058    2.5790 P   0  0  0  0  0  0
    0.5557    4.9803    4.0355 O   0  0  0  0  0  0
    2.1673   -1.5734    1.9923 H   0  0  0  0  0  0
    2.9209   -1.4295    4.1875 H   0  0  0  0  0  0
    3.4813    0.2465    4.0407 H   0  0  0  0  0  0
    3.9310   -2.1245    0.6112 H   0  0  0  0  0  0
   -0.3060    0.5531    3.0790 H   0  0  0  0  0  0
    1.4606    0.6157    5.2140 H   0  0  0  0  0  0
    5.7481    2.3124    0.9891 H   0  0  0  0  0  0
    0.4675    2.6346    4.3537 H   0  0  0  0  0  0
    1.9445    2.5987    3.4306 H   0  0  0  0  0  0
    1.0279   -1.6992    5.1910 H   0  0  0  0  0  0
    5.6158   -2.8360   -0.8852 H   0  0  0  0  0  0
    6.1753   -1.5284   -1.9261 H   0  0  0  0  0  0
    7.1656   -2.0604   -0.5613 H   0  0  0  0  0  0
    0.9638    5.4392    1.4879 O   0  5  0  0  0  0
   -1.4514    4.9227    2.3587 O   0  5  0  0  0  0
  1  2  1  0  0  0
  1  3  1  0  0  0
  1  4  1  0  0  0
  1 20  1  0  0  0
  2  5  1  0  0  0
  2  6  1  0  0  0
  3  7  1  0  0  0
  4  8  1  0  0  0
  4 21  1  0  0  0
  4 22  1  0  0  0
  5  9  1  0  0  0
  5 10  2  0  0  0
  6 11  2  0  0  0
  6 23  1  0  0  0
  7 12  1  0  0  0
  7  8  1  0  0  0
  7 24  1  0  0  0
  8 13  1  0  0  0
  8 25  1  0  0  0
  9 14  1  0  0  0
  9 26  1  0  0  0
 11 15  1  0  0  0
 11 14  1  0  0  0
 12 16  1  0  0  0
 12 27  1  0  0  0
 12 28  1  0  0  0
 13 29  1  0  0  0
 14 17  2  0  0  0
 15 30  1  0  0  0
 15 31  1  0  0  0
 15 32  1  0  0  0
 16 18  1  0  0  0
 18 19  2  0  0  0
 18 33  1  0  0  0
 18 34  1  0  0  0
M  CHG  2  33  -1  34  -1
M  END
> <i_ionizer_Ion_state_n>
3

> <i_ionizer_Tot_Q>
-2

> <s_ionizer_Ion_centers>
33_34

> <s_ionizer_Ion_types>
OM_OM

> <s_ionizer_Ion_ctrs_in>
19_20

> <r_ionizer_Ionization_penalty>
1.49178e-05

> <r_ionizer_Ionization_penalty_charging>
1.49178e-05

> <r_ionizer_Ionization_penalty_neutral>
0

> <s_st_Chirality_1>
1_R_3_2_4_20

> <s_st_Chirality_2>
7_R_3_8_12_24

> <s_st_Chirality_3>
8_S_13_7_4_25

> <i_mmod_Serial_Number-OPLS-2005>
211

> <i_i_glide_lignum>
209

> <r_i_docking_score>
-5.68947

> <r_i_glide_gscore>
-5.68947

> <r_i_glide_lipo>
-0.919693

> <r_i_glide_hbond>
-0.848903

> <r_i_glide_metal>
0

> <r_i_glide_eburp>
-1.36214

> <r_i_glide_evdw>
-22.5093

> <r_i_glide_ecoul>
-1.94452

> <r_i_glide_erotb>
0.624321

> <r_i_glide_esite>
-1.18785

> <r_i_glide_emodel>
-60.2164

> <r_i_glide_energy>
-24.4539

> <r_i_glide_einternal>
3.71421

> <i_i_glide_confnum>
39

> <i_i_glide_posenum>
100

$$$$
C01081
                    3D
 Structure written by MMmdl.
 38 39  0  0  1  0            999 V2000
    3.2133    3.9230    1.5304 N   0  3  0  0  0  0
    3.8361    3.1799    2.5416 C   0  0  0  0  0  0
    2.8948    5.3569    1.6002 C   0  0  0  0  0  0
    2.8990    3.2270    0.4281 C   0  0  0  0  0  0
    4.0062    1.8690    2.1486 C   0  0  0  0  0  0
    4.2820    3.6962    3.8823 C   0  0  0  0  0  0
    1.3917    5.5875    1.6806 C   0  0  0  0  0  0
    3.3608    1.5684    0.5606 S   0  0  0  0  0  0
    4.6282    0.7399    2.9045 C   0  0  0  0  0  0
    0.6905    6.4858    0.8405 C   0  0  0  0  0  0
    0.6068    4.8841    2.6194 C   0  0  0  0  0  0
    3.5874   -0.1917    3.5415 C   0  0  0  0  0  0
   -0.6448    6.6453    0.9337 N   0  0  0  0  0  0
    1.3063    7.2205   -0.0957 N   0  0  0  0  0  0
   -0.7285    5.0535    2.7065 N   0  0  0  0  0  0
    2.5892   -0.5302    2.5967 O   0  0  0  0  0  0
   -1.2817    5.9222    1.8579 C   0  0  0  0  0  0
    0.9006   -0.2117    3.1152 P   0  0  0  0  0  0
   -2.7801    6.1149    1.9603 C   0  0  0  0  0  0
    0.7946   -1.0997    4.3745 O   0  0  0  0  0  0
    3.3833    5.7962    2.4693 H   0  0  0  0  0  0
    3.3339    5.8454    0.7300 H   0  0  0  0  0  0
    2.4108    3.6390   -0.4365 H   0  0  0  0  0  0
    4.2947    2.9112    4.6382 H   0  0  0  0  0  0
    5.2861    4.1163    3.8256 H   0  0  0  0  0  0
    3.6190    4.4728    4.2607 H   0  0  0  0  0  0
    5.2686    0.1781    2.2261 H   0  0  0  0  0  0
    5.2987    1.1190    3.6754 H   0  0  0  0  0  0
    1.0503    4.1756    3.3028 H   0  0  0  0  0  0
    4.0629   -1.1061    3.8963 H   0  0  0  0  0  0
    3.1295    0.2793    4.4128 H   0  0  0  0  0  0
    0.7868    7.9203   -0.6057 H   0  0  0  0  0  0
    2.3121    7.2916   -0.1275 H   0  0  0  0  0  0
   -3.2688    5.2009    2.2999 H   0  0  0  0  0  0
   -3.0077    6.9102    2.6702 H   0  0  0  0  0  0
   -3.2061    6.3850    0.9934 H   0  0  0  0  0  0
    0.9024    1.3133    3.3675 O   0  5  0  0  0  0
    0.1057   -0.6892    1.8806 O   0  5  0  0  0  0
  1  2  1  0  0  0
  1  3  1  0  0  0
  1  4  2  0  0  0
  2  5  2  0  0  0
  2  6  1  0  0  0
  3  7  1  0  0  0
  3 21  1  0  0  0
  3 22  1  0  0  0
  4  8  1  0  0  0
  4 23  1  0  0  0
  5  9  1  0  0  0
  5  8  1  0  0  0
  6 24  1  0  0  0
  6 25  1  0  0  0
  6 26  1  0  0  0
  7 10  2  0  0  0
  7 11  1  0  0  0
  9 12  1  0  0  0
  9 27  1  0  0  0
  9 28  1  0  0  0
 10 13  1  0  0  0
 10 14  1  0  0  0
 11 15  2  0  0  0
 11 29  1  0  0  0
 12 16  1  0  0  0
 12 30  1  0  0  0
 12 31  1  0  0  0
 13 17  2  0  0  0
 14 32  1  0  0  0
 14 33  1  0  0  0
 15 17  1  0  0  0
 16 18  1  0  0  0
 17 19  1  0  0  0
 18 20  2  0  0  0
 18 37  1  0  0  0
 18 38  1  0  0  0
 19 34  1  0  0  0
 19 35  1  0  0  0
 19 36  1  0  0  0
M  CHG  3   1   1  37  -1  38  -1
M  END
> <i_ionizer_Ion_state_n>
3

> <i_ionizer_Tot_Q>
-1

> <s_ionizer_Ion_centers>
37_38

> <s_ionizer_Ion_types>
OM_OM

> <s_ionizer_Ion_ctrs_in>
20_21

> <r_ionizer_Ionization_penalty>
1.49178e-05

> <r_ionizer_Ionization_penalty_charging>
1.49178e-05

> <r_ionizer_Ionization_penalty_neutral>
0

> <i_mmod_Serial_Number-OPLS-2005>
387

> <i_i_glide_lignum>
383

> <r_i_docking_score>
-5.68733

> <r_i_glide_gscore>
-5.68733

> <r_i_glide_lipo>
-0.978277

> <r_i_glide_hbond>
-0.380255

> <r_i_glide_metal>
0

> <r_i_glide_eburp>
-1.18694

> <r_i_glide_evdw>
-34.9546

> <r_i_glide_ecoul>
-2.81378

> <r_i_glide_erotb>
0.919822

> <r_i_glide_esite>
-0.983929

> <r_i_glide_emodel>
-68.8334

> <r_i_glide_energy>
-37.7684

> <r_i_glide_einternal>
5.81017

> <i_i_glide_confnum>
60

> <i_i_glide_posenum>
12

$$$$
C01944
                    3D
 Structure written by MMmdl.
103105  0  0  1  0            999 V2000
   -4.4521    4.1529   17.5814 N   0  0  0  0  0  0
   -3.7008    5.1409   18.4324 C   0  0  1  0  0  0
   -4.8874    2.8828   17.9172 C   0  0  0  0  0  0
   -4.8028    4.3012   16.2555 C   0  0  0  0  0  0
   -2.2134    5.1412   18.0304 C   0  0  1  0  0  0
   -4.1803    6.4326   18.1826 O   0  0  0  0  0  0
   -5.5475    2.3842   16.7593 C   0  0  0  0  0  0
   -4.7518    2.2117   19.0997 N   0  0  0  0  0  0
   -5.4628    3.3071   15.7270 N   0  0  0  0  0  0
   -1.9144    6.6190   17.8536 C   0  0  1  0  0  0
   -1.3475    4.6025   19.0060 O   0  0  0  0  0  0
   -3.2642    7.1640   17.3693 C   0  0  1  0  0  0
   -6.1252    1.0958   16.8817 C   0  0  0  0  0  0
   -5.3430    1.0151   19.0653 C   0  0  0  0  0  0
   -1.5958    7.1483   19.1405 O   0  0  0  0  0  0
   -3.5880    6.9000   15.8858 C   0  0  0  0  0  0
   -6.0004    0.4360   18.0561 N   0  0  0  0  0  0
   -6.7856    0.4941   15.8836 N   0  0  0  0  0  0
   -1.3152    8.9161   19.2746 P   0  0  0  0  0  0
   -4.8699    7.3771   15.5333 O   0  0  0  0  0  0
   -0.1288    9.1594   18.3162 O   0  0  0  0  0  0
   -5.3345    7.5119   13.8996 P   0  0  0  0  0  0
   -4.2761    8.6585   13.2156 O   0  0  0  0  0  0
   -5.0974    6.2074   13.2392 O   0  0  0  0  0  0
   -2.7185    8.6812   12.5262 P   0  0  0  0  0  0
   -2.9393    9.5745   11.0901 O   0  0  0  0  0  0
   -1.8074    9.4470   13.4064 O   0  0  0  0  0  0
   -1.8443    9.9754   10.2839 C   0  0  0  0  0  0
   -2.1288   11.2705    9.4765 C   0  0  0  0  0  0
   -3.1092   10.9162    8.3062 C   0  0  2  0  0  0
   -2.7172   12.3373   10.4269 C   0  0  0  0  0  0
   -0.7989   11.8116    8.9037 C   0  0  0  0  0  0
   -2.5682    9.9136    7.2691 C   0  0  0  0  0  0
   -3.5265   12.0869    7.6262 O   0  0  0  0  0  0
   -3.4288    9.5183    6.3193 N   0  0  0  0  0  0
   -1.3988    9.5294    7.3102 O   0  0  0  0  0  0
   -3.1168    8.5501    5.2770 C   0  0  0  0  0  0
   -2.7186    9.2675    3.9756 C   0  0  0  0  0  0
   -2.0545    8.3365    2.9563 C   0  0  0  0  0  0
   -1.6627    8.9004    1.8049 N   0  0  0  0  0  0
   -1.9047    7.1395    3.2021 O   0  0  0  0  0  0
   -0.9015    8.2116    0.7716 C   0  0  0  0  0  0
    0.3774    7.6015    1.3560 C   0  0  0  0  0  0
    1.1811    6.4882    0.1663 S   0  0  0  0  0  0
    2.0561    5.4107    1.3266 C   0  0  0  0  0  0
    1.1492    4.5643    2.2240 C   0  0  0  0  0  0
    3.2841    5.3560    1.3946 O   0  0  0  0  0  0
    1.8367    3.3081    2.7901 C   0  0  0  0  0  0
    0.8759    2.4331    3.6082 C   0  0  0  0  0  0
    1.5874    1.2573    4.2934 C   0  0  0  0  0  0
    1.9317    0.1250    3.3147 C   0  0  0  0  0  0
    3.0960   -0.7467    3.8071 C   0  0  0  0  0  0
    4.4360   -0.0027    3.7915 C   0  0  0  0  0  0
   -3.8985    4.8370   19.4606 H   0  0  0  0  0  0
   -4.5613    5.1889   15.6894 H   0  0  0  0  0  0
   -2.0762    4.6249   17.0812 H   0  0  0  0  0  0
   -1.0989    6.7906   17.1501 H   0  0  0  0  0  0
   -1.1236    3.7324   18.7012 H   0  0  0  0  0  0
   -3.3718    8.2308   17.5582 H   0  0  0  0  0  0
   -5.2841    0.4403   19.9775 H   0  0  0  0  0  0
   -2.8534    7.3569   15.2291 H   0  0  0  0  0  0
   -3.5436    5.8269   15.6998 H   0  0  0  0  0  0
   -7.1952   -0.4162   16.0299 H   0  0  0  0  0  0
   -6.9209    0.9849   15.0117 H   0  0  0  0  0  0
   -1.6173    9.1443    9.6155 H   0  0  0  0  0  0
   -0.9625   10.1069   10.9126 H   0  0  0  0  0  0
   -4.0129   10.4850    8.7409 H   0  0  0  0  0  0
   -2.8875   13.2887    9.9245 H   0  0  0  0  0  0
   -3.6651   12.0154   10.8584 H   0  0  0  0  0  0
   -2.0357   12.5372   11.2526 H   0  0  0  0  0  0
   -0.9345   12.7433    8.3547 H   0  0  0  0  0  0
   -0.0823   12.0246    9.6973 H   0  0  0  0  0  0
   -0.3365   11.0930    8.2265 H   0  0  0  0  0  0
   -3.8484   12.7067    8.2621 H   0  0  0  0  0  0
   -4.3612    9.9056    6.3284 H   0  0  0  0  0  0
   -2.3046    7.9051    5.6175 H   0  0  0  0  0  0
   -3.9878    7.9136    5.1106 H   0  0  0  0  0  0
   -3.5990    9.7130    3.5108 H   0  0  0  0  0  0
   -2.0356   10.0867    4.2060 H   0  0  0  0  0  0
   -1.9072    9.8652    1.6352 H   0  0  0  0  0  0
   -1.5191    7.4293    0.3272 H   0  0  0  0  0  0
   -0.6511    8.9164   -0.0230 H   0  0  0  0  0  0
    1.0767    8.3924    1.6308 H   0  0  0  0  0  0
    0.1430    7.0424    2.2629 H   0  0  0  0  0  0
    0.7967    5.1927    3.0427 H   0  0  0  0  0  0
    0.2698    4.2771    1.6467 H   0  0  0  0  0  0
    2.2524    2.7169    1.9726 H   0  0  0  0  0  0
    2.6785    3.6023    3.4190 H   0  0  0  0  0  0
    0.3806    3.0461    4.3624 H   0  0  0  0  0  0
    0.0896    2.0508    2.9561 H   0  0  0  0  0  0
    2.5011    1.6145    4.7702 H   0  0  0  0  0  0
    0.9551    0.8666    5.0917 H   0  0  0  0  0  0
    1.0515   -0.5004    3.1596 H   0  0  0  0  0  0
    2.1834    0.5501    2.3423 H   0  0  0  0  0  0
    2.8904   -1.0942    4.8202 H   0  0  0  0  0  0
    3.1741   -1.6389    3.1848 H   0  0  0  0  0  0
    5.2417   -0.6463    4.1453 H   0  0  0  0  0  0
    4.6919    0.3271    2.7843 H   0  0  0  0  0  0
    4.4058    0.8767    4.4354 H   0  0  0  0  0  0
   -2.6802    9.4855   18.8290 O   0  5  0  0  0  0
   -0.9960    9.0534   20.7797 O   0  5  0  0  0  0
   -6.6959    8.0938   13.8668 O   0  5  0  0  0  0
   -2.3710    7.2893   12.1581 O   0  5  0  0  0  0
  1  2  1  0  0  0
  1  3  1  0  0  0
  1  4  1  0  0  0
  2  5  1  0  0  0
  2  6  1  0  0  0
  2 54  1  0  0  0
  3  7  2  0  0  0
  3  8  1  0  0  0
  4  9  2  0  0  0
  4 55  1  0  0  0
  5 10  1  0  0  0
  5 11  1  0  0  0
  5 56  1  0  0  0
  6 12  1  0  0  0
  7 13  1  0  0  0
  7  9  1  0  0  0
  8 14  2  0  0  0
 10 15  1  0  0  0
 10 12  1  0  0  0
 10 57  1  0  0  0
 11 58  1  0  0  0
 12 16  1  0  0  0
 12 59  1  0  0  0
 13 17  2  0  0  0
 13 18  1  0  0  0
 14 17  1  0  0  0
 14 60  1  0  0  0
 15 19  1  0  0  0
 16 20  1  0  0  0
 16 61  1  0  0  0
 16 62  1  0  0  0
 18 63  1  0  0  0
 18 64  1  0  0  0
 19 21  2  0  0  0
 19100  1  0  0  0
 19101  1  0  0  0
 20 22  1  0  0  0
 22 23  1  0  0  0
 22 24  2  0  0  0
 22102  1  0  0  0
 23 25  1  0  0  0
 25 26  1  0  0  0
 25 27  2  0  0  0
 25103  1  0  0  0
 26 28  1  0  0  0
 28 29  1  0  0  0
 28 65  1  0  0  0
 28 66  1  0  0  0
 29 30  1  0  0  0
 29 31  1  0  0  0
 29 32  1  0  0  0
 30 33  1  0  0  0
 30 34  1  0  0  0
 30 67  1  0  0  0
 31 68  1  0  0  0
 31 69  1  0  0  0
 31 70  1  0  0  0
 32 71  1  0  0  0
 32 72  1  0  0  0
 32 73  1  0  0  0
 33 35  1  0  0  0
 33 36  2  0  0  0
 34 74  1  0  0  0
 35 37  1  0  0  0
 35 75  1  0  0  0
 37 38  1  0  0  0
 37 76  1  0  0  0
 37 77  1  0  0  0
 38 39  1  0  0  0
 38 78  1  0  0  0
 38 79  1  0  0  0
 39 40  1  0  0  0
 39 41  2  0  0  0
 40 42  1  0  0  0
 40 80  1  0  0  0
 42 43  1  0  0  0
 42 81  1  0  0  0
 42 82  1  0  0  0
 43 44  1  0  0  0
 43 83  1  0  0  0
 43 84  1  0  0  0
 44 45  1  0  0  0
 45 46  1  0  0  0
 45 47  2  0  0  0
 46 48  1  0  0  0
 46 85  1  0  0  0
 46 86  1  0  0  0
 48 49  1  0  0  0
 48 87  1  0  0  0
 48 88  1  0  0  0
 49 50  1  0  0  0
 49 89  1  0  0  0
 49 90  1  0  0  0
 50 51  1  0  0  0
 50 91  1  0  0  0
 50 92  1  0  0  0
 51 52  1  0  0  0
 51 93  1  0  0  0
 51 94  1  0  0  0
 52 53  1  0  0  0
 52 95  1  0  0  0
 52 96  1  0  0  0
 53 97  1  0  0  0
 53 98  1  0  0  0
 53 99  1  0  0  0
M  CHG  4 100  -1 101  -1 102  -1 103  -1
M  END
> <i_ionizer_Ion_state_n>
30

> <i_ionizer_Tot_Q>
-4

> <s_ionizer_Ion_centers>
100_101_102_103

> <s_ionizer_Ion_types>
OM_OM_OM_OM

> <s_ionizer_Ion_ctrs_in>
21_22_26_30

> <r_ionizer_Ionization_penalty>
4.85714e-05

> <r_ionizer_Ionization_penalty_charging>
2.98356e-05

> <r_ionizer_Ionization_penalty_neutral>
1.87357e-05

> <s_st_Chirality_1>
2_R_6_1_5_54

> <s_st_Chirality_2>
5_R_11_2_10_56

> <s_st_Chirality_3>
10_R_15_5_12_57

> <s_st_Chirality_4>
12_R_6_10_16_59

> <s_st_Chirality_5>
30_R_34_33_29_67

> <i_mmod_Serial_Number-OPLS-2005>
465

> <i_i_glide_lignum>
460

> <r_i_docking_score>
-5.68596

> <r_i_glide_gscore>
-5.68596

> <r_i_glide_lipo>
-1.07344

> <r_i_glide_hbond>
-1.72843

> <r_i_glide_metal>
0

> <r_i_glide_eburp>
0

> <r_i_glide_evdw>
-49.0157

> <r_i_glide_ecoul>
-9.87272

> <r_i_glide_erotb>
0.578907

> <r_i_glide_esite>
1.44554

> <r_i_glide_emodel>
-88.6199

> <r_i_glide_energy>
-58.8884

> <r_i_glide_einternal>
12.0141

> <i_i_glide_confnum>
628

> <i_i_glide_posenum>
183

$$$$
C03508
                    3D
 Structure written by MMmdl.
 15 14  0  0  1  0            999 V2000
    2.6164    0.4605    3.9597 C   0  0  1  0  0  0
    3.3398    0.0286    2.6719 C   0  0  0  0  0  0
    1.2146    0.9954    3.6311 C   0  0  0  0  0  0
    4.7775    0.5022    2.4782 C   0  0  0  0  0  0
    2.8045   -0.6951    1.8313 O   0  0  0  0  0  0
    0.5336    0.3897    2.7716 O   0  0  0  0  0  0
    3.2036    1.2352    4.4541 H   0  0  0  0  0  0
    2.0507   -0.4127    5.7205 H   0  0  0  0  0  0
    1.9418   -1.4053    4.4086 H   0  0  0  0  0  0
    5.3330   -0.2048    1.8619 H   0  0  0  0  0  0
    4.7898    1.4749    1.9864 H   0  0  0  0  0  0
    5.2831    0.5945    3.4396 H   0  0  0  0  0  0
    2.5027   -0.6995    4.8645 N   0  3  0  0  0  0
    3.4213   -1.0688    5.0620 H   0  0  0  0  0  0
    0.8384    2.0042    4.2664 O   0  5  0  0  0  0
  1  2  1  0  0  0
  1  3  1  0  0  0
  1  7  1  0  0  0
  1 13  1  0  0  0
  2  4  1  0  0  0
  2  5  2  0  0  0
  3  6  2  0  0  0
  3 15  1  0  0  0
  4 10  1  0  0  0
  4 11  1  0  0  0
  4 12  1  0  0  0
  8 13  1  0  0  0
  9 13  1  0  0  0
 13 14  1  0  0  0
M  CHG  2  13   1  15  -1
M  END
> <i_ionizer_Ion_state_n>
3

> <i_ionizer_Tot_Q>
0

> <s_ionizer_Ion_centers>
13_15

> <s_ionizer_Ion_types>
N5_OM

> <s_ionizer_Ion_ctrs_in>
4_7

> <r_ionizer_Ionization_penalty>
0.000779521

> <r_ionizer_Ionization_penalty_charging>
0.000779521

> <r_ionizer_Ionization_penalty_neutral>
0

> <s_st_Chirality_1>
1_S_13_3_2_7

> <i_mmod_Serial_Number-OPLS-2005>
551

> <i_i_glide_lignum>
545

> <r_i_docking_score>
-5.68347

> <r_i_glide_gscore>
-5.68347

> <r_i_glide_lipo>
-0.164579

> <r_i_glide_hbond>
-0.998014

> <r_i_glide_metal>
0

> <r_i_glide_eburp>
-2.5

> <r_i_glide_evdw>
-10.9442

> <r_i_glide_ecoul>
-5.95815

> <r_i_glide_erotb>
0

> <r_i_glide_esite>
-0.549521

> <r_i_glide_emodel>
-34.2669

> <r_i_glide_energy>
-16.9024

> <r_i_glide_einternal>
0.697373

> <i_i_glide_confnum>
1

> <i_i_glide_posenum>
700

$$$$
C09821
                    3D
 Structure written by MMmdl.
 95 98  0  0  1  0            999 V2000
   -9.9355   11.2091   11.5249 N   0  0  0  0  0  0
  -11.1763   10.7189   10.8364 C   0  0  1  0  0  0
   -8.9646   10.3943   12.0672 C   0  0  0  0  0  0
   -9.4612   12.4943   11.7176 C   0  0  0  0  0  0
  -12.3860   11.6384   11.0565 C   0  0  1  0  0  0
  -10.9134   10.6995    9.4612 O   0  0  0  0  0  0
   -7.9629   11.2630   12.5783 C   0  0  0  0  0  0
   -8.9403    9.0297   12.1205 N   0  0  0  0  0  0
   -8.3164   12.5828   12.3412 N   0  0  0  0  0  0
  -13.0547   11.5647    9.6978 C   0  0  1  0  0  0
  -13.2993   11.1765   12.0282 O   0  0  0  0  0  0
  -11.8470   11.5132    8.7485 C   0  0  1  0  0  0
   -6.8546   10.6314   13.1960 C   0  0  0  0  0  0
   -7.8387    8.5797   12.7277 C   0  0  0  0  0  0
  -13.7797   10.3360    9.6460 O   0  0  0  0  0  0
  -11.1668   12.8666    8.4694 C   0  0  0  0  0  0
   -6.8274    9.2796   13.2528 N   0  0  0  0  0  0
   -5.8289   11.3107   13.7259 N   0  0  0  0  0  0
  -14.9359   10.0990    8.2933 P   0  0  0  0  0  0
   -9.9602   12.7259    7.7489 O   0  0  0  0  0  0
  -16.1762   10.9022    8.7426 O   0  0  0  0  0  0
   -8.8450   14.0079    7.6784 P   0  0  0  0  0  0
   -7.4987   13.2946    6.9194 O   0  0  0  0  0  0
   -9.3888   15.0416    6.7675 O   0  0  0  0  0  0
   -6.9535   11.7128    6.6095 P   0  0  0  0  0  0
   -5.5751   11.9256    5.6286 O   0  0  0  0  0  0
   -6.4964   11.1334    7.8929 O   0  0  0  0  0  0
   -4.2638   11.9469    6.1675 C   0  0  0  0  0  0
   -3.2525   11.1820    5.2755 C   0  0  0  0  0  0
   -3.6866    9.6772    5.2254 C   0  0  2  0  0  0
   -3.2268   11.8303    3.8711 C   0  0  0  0  0  0
   -1.8437   11.3077    5.9002 C   0  0  0  0  0  0
   -2.7416    8.7398    4.4503 C   0  0  0  0  0  0
   -4.9910    9.5469    4.6878 O   0  0  0  0  0  0
   -2.8544    8.7556    3.1138 N   0  0  0  0  0  0
   -1.9175    8.0409    5.0411 O   0  0  0  0  0  0
   -2.1926    7.8147    2.2206 C   0  0  0  0  0  0
   -0.7183    7.6350    2.6217 C   0  0  0  0  0  0
   -0.0936    6.3566    2.0539 C   0  0  0  0  0  0
    1.0864    6.4976    1.4333 N   0  0  0  0  0  0
   -0.6655    5.2724    2.1691 O   0  0  0  0  0  0
    1.9300    5.3867    1.0141 C   0  0  0  0  0  0
    2.8507    4.9427    2.1562 C   0  0  0  0  0  0
    4.1737    3.8532    1.5496 S   0  0  0  0  0  0
    3.1930    2.3868    1.0933 C   0  0  0  0  0  0
    2.7737    1.4294    2.1647 C   0  0  0  0  0  0
    2.9042    2.2310   -0.0938 O   0  0  0  0  0  0
    1.8062    0.3347    1.8455 C   0  0  0  0  0  0
    3.2513    1.5361    3.4283 C   0  0  0  0  0  0
    1.2506   -0.4949    3.0093 C   0  0  0  0  0  0
    1.3991    0.0677    0.7144 O   0  0  0  0  0  0
    2.9100    0.6055    4.5799 C   0  0  0  0  0  0
    2.3119   -0.7207    4.0926 C   0  0  0  0  0  0
  -11.3383    9.7023   11.1968 H   0  0  0  0  0  0
   -9.9802   13.3827   11.3898 H   0  0  0  0  0  0
  -12.0806   12.6588   11.2731 H   0  0  0  0  0  0
  -13.7226   12.4062    9.5144 H   0  0  0  0  0  0
  -13.4937   10.2774   11.7974 H   0  0  0  0  0  0
  -12.0979   11.0554    7.7932 H   0  0  0  0  0  0
   -7.7542    7.5057   12.8048 H   0  0  0  0  0  0
  -11.8157   13.5182    7.8898 H   0  0  0  0  0  0
  -10.9789   13.3809    9.4124 H   0  0  0  0  0  0
   -5.0621   10.8128   14.1530 H   0  0  0  0  0  0
   -5.8286   12.3201   13.6889 H   0  0  0  0  0  0
   -3.9391   12.9780    6.3116 H   0  0  0  0  0  0
   -4.3090   11.5086    7.1620 H   0  0  0  0  0  0
   -3.7478    9.3100    6.2515 H   0  0  0  0  0  0
   -2.4760   11.3779    3.2244 H   0  0  0  0  0  0
   -4.1900   11.7428    3.3691 H   0  0  0  0  0  0
   -2.9914   12.8934    3.9305 H   0  0  0  0  0  0
   -1.0793   10.8194    5.2959 H   0  0  0  0  0  0
   -1.5420   12.3510    5.9954 H   0  0  0  0  0  0
   -1.8109   10.8654    6.8964 H   0  0  0  0  0  0
   -4.9800    9.8398    3.7898 H   0  0  0  0  0  0
   -3.4441    9.4590    2.6930 H   0  0  0  0  0  0
   -2.7146    6.8566    2.2576 H   0  0  0  0  0  0
   -2.2670    8.1846    1.1962 H   0  0  0  0  0  0
   -0.1311    8.4866    2.2760 H   0  0  0  0  0  0
   -0.6369    7.6171    3.7097 H   0  0  0  0  0  0
    1.4195    7.4313    1.2413 H   0  0  0  0  0  0
    1.3004    4.5538    0.6967 H   0  0  0  0  0  0
    2.5244    5.6899    0.1506 H   0  0  0  0  0  0
    3.2983    5.8155    2.6337 H   0  0  0  0  0  0
    2.2727    4.4131    2.9148 H   0  0  0  0  0  0
    3.9273    2.3293    3.7072 H   0  0  0  0  0  0
    0.3909    0.0293    3.4278 H   0  0  0  0  0  0
    0.8872   -1.4539    2.6377 H   0  0  0  0  0  0
    3.8101    0.4116    5.1640 H   0  0  0  0  0  0
    2.2091    1.1206    5.2376 H   0  0  0  0  0  0
    1.8840   -1.2679    4.9330 H   0  0  0  0  0  0
    3.1066   -1.3513    3.6906 H   0  0  0  0  0  0
  -14.1441   10.6796    7.1009 O   0  5  0  0  0  0
  -15.0953    8.5627    8.3028 O   0  5  0  0  0  0
   -8.4739   14.3787    9.0627 O   0  5  0  0  0  0
   -7.9896   11.0020    5.8253 O   0  5  0  0  0  0
  1  2  1  0  0  0
  1  3  1  0  0  0
  1  4  1  0  0  0
  2  5  1  0  0  0
  2  6  1  0  0  0
  2 54  1  0  0  0
  3  7  2  0  0  0
  3  8  1  0  0  0
  4  9  2  0  0  0
  4 55  1  0  0  0
  5 10  1  0  0  0
  5 11  1  0  0  0
  5 56  1  0  0  0
  6 12  1  0  0  0
  7 13  1  0  0  0
  7  9  1  0  0  0
  8 14  2  0  0  0
 10 15  1  0  0  0
 10 12  1  0  0  0
 10 57  1  0  0  0
 11 58  1  0  0  0
 12 16  1  0  0  0
 12 59  1  0  0  0
 13 17  2  0  0  0
 13 18  1  0  0  0
 14 17  1  0  0  0
 14 60  1  0  0  0
 15 19  1  0  0  0
 16 20  1  0  0  0
 16 61  1  0  0  0
 16 62  1  0  0  0
 18 63  1  0  0  0
 18 64  1  0  0  0
 19 21  2  0  0  0
 19 92  1  0  0  0
 19 93  1  0  0  0
 20 22  1  0  0  0
 22 23  1  0  0  0
 22 24  2  0  0  0
 22 94  1  0  0  0
 23 25  1  0  0  0
 25 26  1  0  0  0
 25 27  2  0  0  0
 25 95  1  0  0  0
 26 28  1  0  0  0
 28 29  1  0  0  0
 28 65  1  0  0  0
 28 66  1  0  0  0
 29 30  1  0  0  0
 29 31  1  0  0  0
 29 32  1  0  0  0
 30 33  1  0  0  0
 30 34  1  0  0  0
 30 67  1  0  0  0
 31 68  1  0  0  0
 31 69  1  0  0  0
 31 70  1  0  0  0
 32 71  1  0  0  0
 32 72  1  0  0  0
 32 73  1  0  0  0
 33 35  1  0  0  0
 33 36  2  0  0  0
 34 74  1  0  0  0
 35 37  1  0  0  0
 35 75  1  0  0  0
 37 38  1  0  0  0
 37 76  1  0  0  0
 37 77  1  0  0  0
 38 39  1  0  0  0
 38 78  1  0  0  0
 38 79  1  0  0  0
 39 40  1  0  0  0
 39 41  2  0  0  0
 40 42  1  0  0  0
 40 80  1  0  0  0
 42 43  1  0  0  0
 42 81  1  0  0  0
 42 82  1  0  0  0
 43 44  1  0  0  0
 43 83  1  0  0  0
 43 84  1  0  0  0
 44 45  1  0  0  0
 45 46  1  0  0  0
 45 47  2  0  0  0
 46 48  1  0  0  0
 46 49  2  0  0  0
 48 50  1  0  0  0
 48 51  2  0  0  0
 49 52  1  0  0  0
 49 85  1  0  0  0
 50 53  1  0  0  0
 50 86  1  0  0  0
 50 87  1  0  0  0
 52 53  1  0  0  0
 52 88  1  0  0  0
 52 89  1  0  0  0
 53 90  1  0  0  0
 53 91  1  0  0  0
M  CHG  4  92  -1  93  -1  94  -1  95  -1
M  END
> <i_ionizer_Ion_state_n>
30

> <i_ionizer_Tot_Q>
-4

> <s_ionizer_Ion_centers>
92_93_94_95

> <s_ionizer_Ion_types>
OM_OM_OM_OM

> <s_ionizer_Ion_ctrs_in>
21_22_26_30

> <r_ionizer_Ionization_penalty>
4.85714e-05

> <r_ionizer_Ionization_penalty_charging>
2.98356e-05

> <r_ionizer_Ionization_penalty_neutral>
1.87357e-05

> <s_st_Chirality_1>
2_R_6_1_5_54

> <s_st_Chirality_2>
5_R_11_2_10_56

> <s_st_Chirality_3>
10_R_15_5_12_57

> <s_st_Chirality_4>
12_R_6_10_16_59

> <s_st_Chirality_5>
30_R_34_33_29_67

> <s_st_EZ_1>
45_46_49_52_E

> <i_mmod_Serial_Number-OPLS-2005>
918

> <i_i_glide_lignum>
906

> <r_i_docking_score>
-5.67828

> <r_i_glide_gscore>
-5.67828

> <r_i_glide_lipo>
-1.01817

> <r_i_glide_hbond>
-1.18515

> <r_i_glide_metal>
0

> <r_i_glide_eburp>
5.63785e-18

> <r_i_glide_evdw>
-41.4264

> <r_i_glide_ecoul>
-3.99767

> <r_i_glide_erotb>
0.426208

> <r_i_glide_esite>
-0.187285

> <r_i_glide_emodel>
-90.7001

> <r_i_glide_energy>
-45.4241

> <r_i_glide_einternal>
13.5197

> <i_i_glide_confnum>
407

> <i_i_glide_posenum>
970

$$$$
C00074
                    3D
 Structure written by MMmdl.
 12 11  0  0  1  0            999 V2000
    0.0177    3.9016    2.8354 P   0  0  0  0  0  0
    0.2149    2.1526    2.4997 O   0  0  0  0  0  0
    0.9470    4.5428    1.7797 O   0  0  0  0  0  0
    1.1844    1.2399    2.8221 C   0  0  0  0  0  0
    0.9482   -0.2376    2.3712 C   0  0  0  0  0  0
    2.2779    1.6378    3.4984 C   0  0  0  0  0  0
   -0.0995   -0.4609    1.7247 O   0  0  0  0  0  0
    3.0572    0.9394    3.7653 H   0  0  0  0  0  0
    2.4153    2.6657    3.7976 H   0  0  0  0  0  0
   -1.4984    4.1068    2.6145 O   0  5  0  0  0  0
    0.5004    3.9984    4.3001 O   0  5  0  0  0  0
    1.8253   -1.0708    2.6942 O   0  5  0  0  0  0
  1  2  1  0  0  0
  1  3  2  0  0  0
  1 10  1  0  0  0
  1 11  1  0  0  0
  2  4  1  0  0  0
  4  5  1  0  0  0
  4  6  2  0  0  0
  5  7  2  0  0  0
  5 12  1  0  0  0
  6  8  1  0  0  0
  6  9  1  0  0  0
M  CHG  3  10  -1  11  -1  12  -1
M  END
> <i_ionizer_Ion_state_n>
7

> <i_ionizer_Tot_Q>
-3

> <s_ionizer_Ion_centers>
10_11_12

> <s_ionizer_Ion_types>
OM_OM_OM

> <s_ionizer_Ion_ctrs_in>
3_4_9

> <r_ionizer_Ionization_penalty>
0.000607108

> <r_ionizer_Ionization_penalty_charging>
0.000607108

> <r_ionizer_Ionization_penalty_neutral>
0

> <i_mmod_Serial_Number-OPLS-2005>
51

> <i_i_glide_lignum>
50

> <r_i_docking_score>
-5.67741

> <r_i_glide_gscore>
-5.67741

> <r_i_glide_lipo>
-0.17852

> <r_i_glide_hbond>
-1.82131

> <r_i_glide_metal>
0

> <r_i_glide_eburp>
-2.9

> <r_i_glide_evdw>
-8.65393

> <r_i_glide_ecoul>
-10.0426

> <r_i_glide_erotb>
1.28049

> <r_i_glide_esite>
-0.361498

> <r_i_glide_emodel>
-56.4366

> <r_i_glide_energy>
-18.6965

> <r_i_glide_einternal>
0.457874

> <i_i_glide_confnum>
1

> <i_i_glide_posenum>
31

$$$$
C06606
                    3D
 Structure written by MMmdl.
 32 32  0  0  1  0            999 V2000
    1.3803    1.1778    2.2882 P   0  0  0  0  0  0
    2.5097    1.7353    1.2533 O   0  0  0  0  0  0
    2.2624    0.8022    3.6034 O   0  0  0  0  0  0
    0.6054    2.5345    2.7478 O   0  0  0  0  0  0
    0.5122    0.0866    1.7632 O   0  0  0  0  0  0
    3.6335    1.0848    0.8071 C   0  0  0  0  0  0
    1.7053    0.1052    4.7052 C   0  0  0  0  0  0
    1.2222    3.8091    2.6780 C   0  0  0  0  0  0
    4.7183    1.8675    0.3677 C   0  0  0  0  0  0
    3.7417   -0.3233    0.7652 C   0  0  0  0  0  0
    0.8796   -1.1152    4.2751 C   0  0  0  0  0  0
    0.4862    4.8663    3.5123 C   0  0  0  0  0  0
    5.8989    1.2591   -0.0999 C   0  0  0  0  0  0
    4.9221   -0.9328    0.2978 C   0  0  0  0  0  0
    6.0150   -0.1495   -0.1396 C   0  0  0  0  0  0
    7.2523   -0.7895   -0.6287 N   0  3  0  0  0  0
    7.1735   -1.9173   -1.1054 O   0  0  0  0  0  0
    8.3045   -0.1653   -0.5371 O   0  5  0  0  0  0
    2.5054   -0.1995    5.3807 H   0  0  0  0  0  0
    1.0738    0.7998    5.2591 H   0  0  0  0  0  0
    2.2592    3.7249    3.0052 H   0  0  0  0  0  0
    1.2469    4.1165    1.6325 H   0  0  0  0  0  0
    4.6457    2.9450    0.3927 H   0  0  0  0  0  0
    2.9287   -0.9537    1.0906 H   0  0  0  0  0  0
    0.3962   -1.5764    5.1365 H   0  0  0  0  0  0
    0.1002   -0.8300    3.5682 H   0  0  0  0  0  0
    1.5009   -1.8769    3.8041 H   0  0  0  0  0  0
    0.9543    5.8437    3.3952 H   0  0  0  0  0  0
   -0.5538    4.9568    3.1985 H   0  0  0  0  0  0
    0.4989    4.6231    4.5747 H   0  0  0  0  0  0
    6.7147    1.8866   -0.4278 H   0  0  0  0  0  0
    4.9785   -2.0114    0.2790 H   0  0  0  0  0  0
  1  2  1  0  0  0
  1  3  1  0  0  0
  1  4  1  0  0  0
  1  5  2  0  0  0
  2  6  1  0  0  0
  3  7  1  0  0  0
  4  8  1  0  0  0
  6  9  1  0  0  0
  6 10  2  0  0  0
  7 11  1  0  0  0
  7 19  1  0  0  0
  7 20  1  0  0  0
  8 12  1  0  0  0
  8 21  1  0  0  0
  8 22  1  0  0  0
  9 13  2  0  0  0
  9 23  1  0  0  0
 10 14  1  0  0  0
 10 24  1  0  0  0
 11 25  1  0  0  0
 11 26  1  0  0  0
 11 27  1  0  0  0
 12 28  1  0  0  0
 12 29  1  0  0  0
 12 30  1  0  0  0
 13 15  1  0  0  0
 13 31  1  0  0  0
 14 15  2  0  0  0
 14 32  1  0  0  0
 15 16  1  0  0  0
 16 17  2  0  0  0
 16 18  1  0  0  0
M  CHG  2  16   1  18  -1
M  END
> <i_ionizer_Ion_state_n>
0

> <i_ionizer_Tot_Q>
0

> <s_ionizer_Ion_centers>


> <s_ionizer_Ion_types>


> <s_ionizer_Ion_ctrs_in>


> <r_ionizer_Ionization_penalty>
0

> <r_ionizer_Ionization_penalty_charging>
0

> <r_ionizer_Ionization_penalty_neutral>
0

> <i_mmod_Serial_Number-OPLS-2005>
876

> <i_i_glide_lignum>
864

> <r_i_docking_score>
-5.67411

> <r_i_glide_gscore>
-5.67411

> <r_i_glide_lipo>
-1.01248

> <r_i_glide_hbond>
-0.0829188

> <r_i_glide_metal>
0

> <r_i_glide_eburp>
-1.70303

> <r_i_glide_evdw>
-35.711

> <r_i_glide_ecoul>
-1.5837

> <r_i_glide_erotb>
1.08469

> <r_i_glide_esite>
-0.945126

> <r_i_glide_emodel>
-48.5234

> <r_i_glide_energy>
-37.2947

> <r_i_glide_einternal>
5.21299

> <i_i_glide_confnum>
70

> <i_i_glide_posenum>
540

$$$$
C04051
                    3D
 Structure written by MMmdl.
 16 16  0  0  1  0            999 V2000
    3.3578    0.7702    4.3025 C   0  0  0  0  0  0
    2.3427    1.3783    3.6106 C   0  0  0  0  0  0
    4.7183    1.3251    4.6281 C   0  0  0  0  0  0
    1.3001    0.4964    3.5617 N   0  0  0  0  0  0
    2.3008    2.6005    3.0562 N   0  0  0  0  0  0
    5.5614    0.5003    5.2567 N   0  0  0  0  0  0
    5.0331    2.4751    4.3302 O   0  0  0  0  0  0
    1.6456   -0.6327    4.2022 C   0  0  0  0  0  0
    0.4074    0.6636    3.1147 H   0  0  0  0  0  0
    1.4877    2.9440    2.5651 H   0  0  0  0  0  0
    3.0946    3.2249    3.1142 H   0  0  0  0  0  0
    6.4848    0.8344    5.4933 H   0  0  0  0  0  0
    5.2914   -0.4409    5.4957 H   0  0  0  0  0  0
    1.0296   -1.5057    4.3278 H   0  0  0  0  0  0
    2.9002   -0.4727    4.6569 N   0  3  0  0  0  0
    3.4190   -1.1667    5.1788 H   0  0  0  0  0  0
  1  2  2  0  0  0
  1  3  1  0  0  0
  1 15  1  0  0  0
  2  4  1  0  0  0
  2  5  1  0  0  0
  3  6  1  0  0  0
  3  7  2  0  0  0
  4  8  1  0  0  0
  4  9  1  0  0  0
  5 10  1  0  0  0
  5 11  1  0  0  0
  6 12  1  0  0  0
  6 13  1  0  0  0
  8 14  1  0  0  0
  8 15  2  0  0  0
 15 16  1  0  0  0
M  CHG  1  15   1
M  END
> <i_ionizer_Ion_state_n>
1

> <i_ionizer_Tot_Q>
1

> <s_ionizer_Ion_centers>
15

> <s_ionizer_Ion_types>
N4

> <s_ionizer_Ion_ctrs_in>
4

> <r_ionizer_Ionization_penalty>
0.41068

> <r_ionizer_Ionization_penalty_charging>
0.41068

> <r_ionizer_Ionization_penalty_neutral>
0

> <i_mmod_Serial_Number-OPLS-2005>
579

> <i_i_glide_lignum>
573

> <r_i_docking_score>
-5.67387

> <r_i_glide_gscore>
-5.67387

> <r_i_glide_lipo>
-0.185504

> <r_i_glide_hbond>
-0.95

> <r_i_glide_metal>
0

> <r_i_glide_eburp>
-2.5

> <r_i_glide_evdw>
-15.6427

> <r_i_glide_ecoul>
-9.4376

> <r_i_glide_erotb>
0

> <r_i_glide_esite>
0.156814

> <r_i_glide_emodel>
-37.4112

> <r_i_glide_energy>
-25.0803

> <r_i_glide_einternal>
0.034833

> <i_i_glide_confnum>
1

> <i_i_glide_posenum>
100

$$$$
C00016
                    3D
 Structure written by MMmdl.
 84 89  0  0  1  0            999 V2000
   -6.3823   10.7655    6.2632 N   0  0  0  0  0  0
   -6.5113   11.0080    7.6498 C   0  0  0  0  0  0
   -7.1015   11.4607    5.3245 C   0  0  0  0  0  0
   -5.5351    9.6279    5.8416 C   0  0  0  0  0  0
   -7.5861   12.0105    8.0232 C   0  0  0  0  0  0
   -5.7775   10.4249    8.5577 N   0  0  0  0  0  0
   -8.0811   12.3865    5.7848 C   0  0  0  0  0  0
   -6.9308   11.3123    3.9216 C   0  0  0  0  0  0
   -4.1070   10.0273    5.3779 C   0  0  2  0  0  0
   -8.3001   12.6115    7.1526 N   0  0  0  0  0  0
   -7.7563   12.2618    9.5008 C   0  0  0  0  0  0
   -5.9453   10.6971    9.9217 C   0  0  0  0  0  0
   -8.8585   13.1184    4.8654 C   0  0  0  0  0  0
   -7.7115   12.0470    3.0036 C   0  0  0  0  0  0
   -3.2428    8.8476    4.8529 C   0  0  2  0  0  0
   -3.4932   10.6154    6.5084 O   0  0  0  0  0  0
   -6.9117   11.5718   10.2971 N   0  0  0  0  0  0
   -8.5932   13.0506    9.9398 O   0  0  0  0  0  0
   -5.2448   10.1769   10.7863 O   0  0  0  0  0  0
   -8.6836   12.9555    3.4778 C   0  0  0  0  0  0
   -7.4970   11.8499    1.5116 C   0  0  0  0  0  0
   -1.9545    9.2477    4.0849 C   0  0  1  0  0  0
   -4.0462    8.0523    4.0018 O   0  0  0  0  0  0
   -9.5406   13.7598    2.5149 C   0  0  0  0  0  0
   -1.5531    8.3230    2.9186 C   0  0  0  0  0  0
   -2.0079   10.5844    3.6312 O   0  0  0  0  0  0
   -1.5462    6.9677    3.3223 O   0  0  0  0  0  0
   -0.9758    5.7272    2.3058 P   0  0  0  0  0  0
    0.6198    6.1769    1.9281 O   0  0  0  0  0  0
   -1.7676    5.7572    1.0547 O   0  0  0  0  0  0
    1.8258    5.5438    0.9126 P   0  0  0  0  0  0
    1.7046    3.8653    1.1639 O   0  0  0  0  0  0
    3.1450    5.9788    1.4278 O   0  0  0  0  0  0
    1.9119    3.2637    2.4299 C   0  0  0  0  0  0
    1.4656    1.7883    2.4913 C   0  0  1  0  0  0
    2.1649    1.0375    1.4988 O   0  0  0  0  0  0
    1.7654    1.0715    3.8113 C   0  0  2  0  0  0
    2.5218   -0.2245    1.9828 C   0  0  2  0  0  0
    1.8936   -0.3808    3.3724 C   0  0  2  0  0  0
    0.7753    1.2574    4.8045 O   0  0  0  0  0  0
    4.0109   -0.2615    2.1080 N   0  0  0  0  0  0
    0.6562   -1.0658    3.2927 O   0  0  0  0  0  0
    4.8839   -0.6970    1.1369 C   0  0  0  0  0  0
    4.8112    0.1082    3.1696 C   0  0  0  0  0  0
    6.1842   -0.5585    1.6931 C   0  0  0  0  0  0
    4.5889   -1.1733   -0.1078 N   0  0  0  0  0  0
    6.0953   -0.0456    2.9807 N   0  0  0  0  0  0
    7.2559   -0.9565    0.8554 C   0  0  0  0  0  0
    5.6958   -1.5072   -0.7780 C   0  0  0  0  0  0
    6.9706   -1.4284   -0.3808 N   0  0  0  0  0  0
    8.5404   -0.8890    1.2291 N   0  0  0  0  0  0
   -5.9907    9.0357    5.0479 H   0  0  0  0  0  0
   -5.4825    8.9024    6.6527 H   0  0  0  0  0  0
   -6.2033   10.6339    3.5064 H   0  0  0  0  0  0
   -4.1564   10.8019    4.6125 H   0  0  0  0  0  0
   -9.5979   13.8150    5.2351 H   0  0  0  0  0  0
   -2.9448    8.2398    5.7058 H   0  0  0  0  0  0
   -3.3394    9.9340    7.1461 H   0  0  0  0  0  0
   -7.0128   11.7219   11.2897 H   0  0  0  0  0  0
   -7.2040   12.7888    1.0415 H   0  0  0  0  0  0
   -6.7154   11.1179    1.3072 H   0  0  0  0  0  0
   -8.4137   11.4972    1.0386 H   0  0  0  0  0  0
   -1.1219    9.2101    4.7875 H   0  0  0  0  0  0
   -4.2237    8.5462    3.2113 H   0  0  0  0  0  0
  -10.2376   14.4097    3.0446 H   0  0  0  0  0  0
   -8.9152   14.3884    1.8808 H   0  0  0  0  0  0
  -10.1241   13.0953    1.8773 H   0  0  0  0  0  0
   -0.5596    8.5925    2.5635 H   0  0  0  0  0  0
   -2.2331    8.4463    2.0748 H   0  0  0  0  0  0
   -2.5326   10.5943    2.8439 H   0  0  0  0  0  0
    1.4153    3.8589    3.1962 H   0  0  0  0  0  0
    2.9793    3.3375    2.6383 H   0  0  0  0  0  0
    0.4095    1.6839    2.2459 H   0  0  0  0  0  0
    2.7257    1.4069    4.2052 H   0  0  0  0  0  0
    2.2842   -1.0215    1.2769 H   0  0  0  0  0  0
    2.5471   -0.9485    4.0365 H   0  0  0  0  0  0
    0.9893    0.7077    5.5516 H   0  0  0  0  0  0
    0.0954   -0.6084    2.6855 H   0  0  0  0  0  0
    4.4145    0.4969    4.0964 H   0  0  0  0  0  0
    5.5401   -1.8929   -1.7748 H   0  0  0  0  0  0
    9.2654   -1.1864    0.5929 H   0  0  0  0  0  0
    8.7759   -0.5410    2.1474 H   0  0  0  0  0  0
   -0.9331    4.4842    3.1077 O   0  5  0  0  0  0
    1.4675    5.8159   -0.4965 O   0  5  0  0  0  0
  1  2  1  0  0  0
  1  3  1  0  0  0
  1  4  1  0  0  0
  2  5  1  0  0  0
  2  6  2  0  0  0
  3  7  2  0  0  0
  3  8  1  0  0  0
  4  9  1  0  0  0
  4 52  1  0  0  0
  4 53  1  0  0  0
  5 10  2  0  0  0
  5 11  1  0  0  0
  6 12  1  0  0  0
  7 13  1  0  0  0
  7 10  1  0  0  0
  8 14  2  0  0  0
  8 54  1  0  0  0
  9 15  1  0  0  0
  9 16  1  0  0  0
  9 55  1  0  0  0
 11 17  1  0  0  0
 11 18  2  0  0  0
 12 19  2  0  0  0
 12 17  1  0  0  0
 13 20  2  0  0  0
 13 56  1  0  0  0
 14 21  1  0  0  0
 14 20  1  0  0  0
 15 22  1  0  0  0
 15 23  1  0  0  0
 15 57  1  0  0  0
 16 58  1  0  0  0
 17 59  1  0  0  0
 20 24  1  0  0  0
 21 60  1  0  0  0
 21 61  1  0  0  0
 21 62  1  0  0  0
 22 25  1  0  0  0
 22 26  1  0  0  0
 22 63  1  0  0  0
 23 64  1  0  0  0
 24 65  1  0  0  0
 24 66  1  0  0  0
 24 67  1  0  0  0
 25 27  1  0  0  0
 25 68  1  0  0  0
 25 69  1  0  0  0
 26 70  1  0  0  0
 27 28  1  0  0  0
 28 29  1  0  0  0
 28 30  2  0  0  0
 28 83  1  0  0  0
 29 31  1  0  0  0
 31 32  1  0  0  0
 31 33  2  0  0  0
 31 84  1  0  0  0
 32 34  1  0  0  0
 34 35  1  0  0  0
 34 71  1  0  0  0
 34 72  1  0  0  0
 35 36  1  0  0  0
 35 37  1  0  0  0
 35 73  1  0  0  0
 36 38  1  0  0  0
 37 39  1  0  0  0
 37 40  1  0  0  0
 37 74  1  0  0  0
 38 41  1  0  0  0
 38 39  1  0  0  0
 38 75  1  0  0  0
 39 42  1  0  0  0
 39 76  1  0  0  0
 40 77  1  0  0  0
 41 43  1  0  0  0
 41 44  1  0  0  0
 42 78  1  0  0  0
 43 45  2  0  0  0
 43 46  1  0  0  0
 44 47  2  0  0  0
 44 79  1  0  0  0
 45 48  1  0  0  0
 45 47  1  0  0  0
 46 49  2  0  0  0
 48 50  2  0  0  0
 48 51  1  0  0  0
 49 50  1  0  0  0
 49 80  1  0  0  0
 51 81  1  0  0  0
 51 82  1  0  0  0
M  CHG  2  83  -1  84  -1
M  END
> <i_ionizer_Ion_state_n>
3

> <i_ionizer_Tot_Q>
-2

> <s_ionizer_Ion_centers>
83_84

> <s_ionizer_Ion_types>
OM_OM

> <s_ionizer_Ion_ctrs_in>
30_34

> <r_ionizer_Ionization_penalty>
3.36536e-05

> <r_ionizer_Ionization_penalty_charging>
1.49178e-05

> <r_ionizer_Ionization_penalty_neutral>
1.87357e-05

> <s_st_Chirality_1>
35_R_36_37_34_73

> <s_st_Chirality_2>
37_R_40_39_35_74

> <s_st_Chirality_3>
38_R_36_41_39_75

> <s_st_Chirality_4>
39_R_42_38_37_76

> <s_st_Chirality_5>
9_R_16_15_4_55

> <s_st_Chirality_6>
15_R_23_22_9_57

> <s_st_Chirality_7>
22_R_26_15_25_63

> <i_mmod_Serial_Number-OPLS-2005>
14

> <i_i_glide_lignum>
14

> <r_i_docking_score>
-5.67247

> <r_i_glide_gscore>
-5.67247

> <r_i_glide_lipo>
-1.25772

> <r_i_glide_hbond>
-1.48773

> <r_i_glide_metal>
0

> <r_i_glide_eburp>
4.81386e-17

> <r_i_glide_evdw>
-23.2312

> <r_i_glide_ecoul>
-5.94805

> <r_i_glide_erotb>
0.296423

> <r_i_glide_esite>
-0.770146

> <r_i_glide_emodel>
-67.2598

> <r_i_glide_energy>
-29.1792

> <r_i_glide_einternal>
10.7011

> <i_i_glide_confnum>
421

> <i_i_glide_posenum>
37

$$$$
C05852
                    3D
 Structure written by MMmdl.
 18 18  0  0  1  0            999 V2000
    2.0161    1.9226    3.0803 C   0  0  0  0  0  0
    1.9858    0.6055    3.5993 C   0  0  0  0  0  0
    3.1503    2.7318    3.3114 C   0  0  0  0  0  0
    0.8451    2.4871    2.2837 C   0  0  0  0  0  0
    3.0835    0.1117    4.3333 C   0  0  0  0  0  0
    0.9030   -0.2031    3.4007 O   0  0  0  0  0  0
    4.2444    2.2351    4.0451 C   0  0  0  0  0  0
    0.0012    3.3797    3.1986 C   0  0  0  0  0  0
    4.2113    0.9244    4.5561 C   0  0  0  0  0  0
    0.4956    3.7080    4.3002 O   0  0  0  0  0  0
    3.1851    3.7370    2.9174 H   0  0  0  0  0  0
    1.1996    3.0493    1.4190 H   0  0  0  0  0  0
    0.2247    1.6765    1.9003 H   0  0  0  0  0  0
    3.0647   -0.8930    4.7292 H   0  0  0  0  0  0
    0.9721   -1.0345    3.8430 H   0  0  0  0  0  0
    5.1092    2.8597    4.2138 H   0  0  0  0  0  0
    5.0504    0.5422    5.1184 H   0  0  0  0  0  0
   -1.1370    3.7000    2.7913 O   0  5  0  0  0  0
  1  2  1  0  0  0
  1  3  2  0  0  0
  1  4  1  0  0  0
  2  5  2  0  0  0
  2  6  1  0  0  0
  3  7  1  0  0  0
  3 11  1  0  0  0
  4  8  1  0  0  0
  4 12  1  0  0  0
  4 13  1  0  0  0
  5  9  1  0  0  0
  5 14  1  0  0  0
  6 15  1  0  0  0
  7  9  2  0  0  0
  7 16  1  0  0  0
  8 10  2  0  0  0
  8 18  1  0  0  0
  9 17  1  0  0  0
M  CHG  1  18  -1
M  END
> <i_ionizer_Ion_state_n>
2

> <i_ionizer_Tot_Q>
-1

> <s_ionizer_Ion_centers>
18

> <s_ionizer_Ion_types>
OM

> <s_ionizer_Ion_ctrs_in>
10

> <r_ionizer_Ionization_penalty>
0.00118438

> <r_ionizer_Ionization_penalty_charging>
0.00059219

> <r_ionizer_Ionization_penalty_neutral>
0.00059219

> <i_mmod_Serial_Number-OPLS-2005>
815

> <i_i_glide_lignum>
805

> <r_i_docking_score>
-5.66487

> <r_i_glide_gscore>
-5.66487

> <r_i_glide_lipo>
-0.632907

> <r_i_glide_hbond>
-1.30814

> <r_i_glide_metal>
0

> <r_i_glide_eburp>
-2.5

> <r_i_glide_evdw>
-14.8507

> <r_i_glide_ecoul>
-6.06837

> <r_i_glide_erotb>
0.737646

> <r_i_glide_esite>
-0.166577

> <r_i_glide_emodel>
-45.5925

> <r_i_glide_energy>
-20.9191

> <r_i_glide_einternal>
0.840165

> <i_i_glide_confnum>
2

> <i_i_glide_posenum>
470

$$$$
C03680
                    3D
 Structure written by MMmdl.
 18 18  0  0  1  0            999 V2000
    1.7112    1.0028    2.4345 C   0  0  2  0  0  0
    1.0623   -0.3699    2.2571 C   0  0  0  0  0  0
    2.7884    0.6774    3.3291 N   0  0  0  0  0  0
    0.7560    2.0291    3.0766 C   0  0  0  0  0  0
    1.7035   -1.3024    3.0496 N   0  0  0  0  0  0
    0.1106   -0.5547    1.5001 O   0  0  0  0  0  0
    2.6479   -0.6533    3.6397 C   0  0  0  0  0  0
    1.1586    3.4882    2.7788 C   0  0  0  0  0  0
    0.0714    4.5202    3.0980 C   0  0  0  0  0  0
    0.4167    5.7005    3.3279 O   0  0  0  0  0  0
    2.1004    1.3562    1.4786 H   0  0  0  0  0  0
    3.3243    1.3866    3.8082 H   0  0  0  0  0  0
   -0.2524    1.8608    2.6946 H   0  0  0  0  0  0
    0.7025    1.8676    4.1551 H   0  0  0  0  0  0
    3.3388   -1.0770    4.3702 H   0  0  0  0  0  0
    2.0487    3.7547    3.3490 H   0  0  0  0  0  0
    1.4210    3.5883    1.7251 H   0  0  0  0  0  0
   -1.1061    4.1005    3.1002 O   0  5  0  0  0  0
  1  2  1  0  0  0
  1  3  1  0  0  0
  1  4  1  0  0  0
  1 11  1  0  0  0
  2  5  1  0  0  0
  2  6  2  0  0  0
  3  7  1  0  0  0
  3 12  1  0  0  0
  4  8  1  0  0  0
  4 13  1  0  0  0
  4 14  1  0  0  0
  5  7  2  0  0  0
  7 15  1  0  0  0
  8  9  1  0  0  0
  8 16  1  0  0  0
  8 17  1  0  0  0
  9 10  2  0  0  0
  9 18  1  0  0  0
M  CHG  1  18  -1
M  END
> <i_ionizer_Ion_state_n>
1

> <i_ionizer_Tot_Q>
-1

> <s_ionizer_Ion_centers>
18

> <s_ionizer_Ion_types>
OM

> <s_ionizer_Ion_ctrs_in>
10

> <r_ionizer_Ionization_penalty>
0.00059219

> <r_ionizer_Ionization_penalty_charging>
0.00059219

> <r_ionizer_Ionization_penalty_neutral>
0

> <s_st_Chirality_1>
1_R_3_2_4_11

> <s_st_EZ_1>
2_5_7_3_Z

> <i_mmod_Serial_Number-OPLS-2005>
559

> <i_i_glide_lignum>
553

> <r_i_docking_score>
-5.65804

> <r_i_glide_gscore>
-5.65804

> <r_i_glide_lipo>
-0.246111

> <r_i_glide_hbond>
-1.43172

> <r_i_glide_metal>
0

> <r_i_glide_eburp>
-2.5

> <r_i_glide_evdw>
-16.3242

> <r_i_glide_ecoul>
-5.64547

> <r_i_glide_erotb>
0.707427

> <r_i_glide_esite>
-0.317159

> <r_i_glide_emodel>
-43.9491

> <r_i_glide_energy>
-21.9697

> <r_i_glide_einternal>
3.52157

> <i_i_glide_confnum>
2

> <i_i_glide_posenum>
140

$$$$
C00206
                    3D
 Structure written by MMmdl.
 38 40  0  0  1  0            999 V2000
    1.6986    2.9411    2.7172 N   0  0  0  0  0  0
    1.0690    4.1635    2.6326 C   0  0  0  0  0  0
    1.3932    1.8762    3.7232 C   0  0  2  0  0  0
    2.6219    2.9445    1.6904 C   0  0  0  0  0  0
    1.6751    4.8388    1.5391 C   0  0  0  0  0  0
    0.0659    4.6525    3.4196 N   0  0  0  0  0  0
    2.6004    1.4760    4.3548 O   0  0  0  0  0  0
    0.8757    0.6370    3.0027 C   0  0  0  0  0  0
    2.6546    4.0360    0.9718 N   0  0  0  0  0  0
    1.1758    6.1363    1.2637 C   0  0  0  0  0  0
   -0.2994    5.8809    3.0413 C   0  0  0  0  0  0
    2.7144    0.0610    4.4038 C   0  0  1  0  0  0
    1.4007   -0.5052    3.8440 C   0  0  1  0  0  0
    0.1827    6.6270    2.0415 N   0  0  0  0  0  0
    1.6404    6.9016    0.2674 N   0  0  0  0  0  0
    3.9394   -0.4393    3.6295 C   0  0  0  0  0  0
    0.5005   -0.8359    4.8807 O   0  0  0  0  0  0
    4.3089    0.5292    2.6713 O   0  0  0  0  0  0
    4.6135    0.0903    1.0594 P   0  0  0  0  0  0
    6.2714   -0.2921    1.0524 O   0  0  0  0  0  0
    3.8511   -1.1471    0.7722 O   0  0  0  0  0  0
    7.7315   -0.5442    0.0527 P   0  0  0  0  0  0
    7.2529   -1.5787   -0.9904 O   0  0  0  0  0  0
    0.6634    2.3213    4.4002 H   0  0  0  0  0  0
    3.2773    2.1117    1.4834 H   0  0  0  0  0  0
   -0.2150    0.6333    3.0313 H   0  0  0  0  0  0
    1.2056    0.5834    1.9644 H   0  0  0  0  0  0
   -1.0909    6.3322    3.6212 H   0  0  0  0  0  0
    2.7919   -0.2428    5.4493 H   0  0  0  0  0  0
    1.5948   -1.3791    3.2236 H   0  0  0  0  0  0
    1.2494    7.8190    0.1123 H   0  0  0  0  0  0
    2.3769    6.5505   -0.3280 H   0  0  0  0  0  0
    4.7782   -0.6242    4.2992 H   0  0  0  0  0  0
    3.7147   -1.3800    3.1265 H   0  0  0  0  0  0
    0.9700   -1.3703    5.5065 H   0  0  0  0  0  0
    4.3923    1.2893    0.2199 O   0  5  0  0  0  0
    8.0111    0.8776   -0.4852 O   0  5  0  0  0  0
    8.7437   -1.0671    1.0974 O   0  5  0  0  0  0
  1  2  1  0  0  0
  1  3  1  0  0  0
  1  4  1  0  0  0
  2  5  2  0  0  0
  2  6  1  0  0  0
  3  7  1  0  0  0
  3  8  1  0  0  0
  3 24  1  0  0  0
  4  9  2  0  0  0
  4 25  1  0  0  0
  5 10  1  0  0  0
  5  9  1  0  0  0
  6 11  2  0  0  0
  7 12  1  0  0  0
  8 13  1  0  0  0
  8 26  1  0  0  0
  8 27  1  0  0  0
 10 14  2  0  0  0
 10 15  1  0  0  0
 11 14  1  0  0  0
 11 28  1  0  0  0
 12 16  1  0  0  0
 12 13  1  0  0  0
 12 29  1  0  0  0
 13 17  1  0  0  0
 13 30  1  0  0  0
 15 31  1  0  0  0
 15 32  1  0  0  0
 16 18  1  0  0  0
 16 33  1  0  0  0
 16 34  1  0  0  0
 17 35  1  0  0  0
 18 19  1  0  0  0
 19 20  1  0  0  0
 19 21  2  0  0  0
 19 36  1  0  0  0
 20 22  1  0  0  0
 22 23  2  0  0  0
 22 37  1  0  0  0
 22 38  1  0  0  0
M  CHG  3  36  -1  37  -1  38  -1
M  END
> <i_ionizer_Ion_state_n>
14

> <i_ionizer_Tot_Q>
-3

> <s_ionizer_Ion_centers>
36_37_38

> <s_ionizer_Ion_types>
OM_OM_OM

> <s_ionizer_Ion_ctrs_in>
21_24_25

> <r_ionizer_Ionization_penalty>
4.11125e-05

> <r_ionizer_Ionization_penalty_charging>
2.23767e-05

> <r_ionizer_Ionization_penalty_neutral>
1.87357e-05

> <s_st_Chirality_1>
3_R_7_1_8_24

> <s_st_Chirality_2>
12_R_7_13_16_29

> <s_st_Chirality_3>
13_S_17_12_8_30

> <i_mmod_Serial_Number-OPLS-2005>
139

> <i_i_glide_lignum>
137

> <r_i_docking_score>
-5.65643

> <r_i_glide_gscore>
-5.65643

> <r_i_glide_lipo>
-0.619015

> <r_i_glide_hbond>
-0.333044

> <r_i_glide_metal>
0

> <r_i_glide_eburp>
-0.695585

> <r_i_glide_evdw>
-37.114

> <r_i_glide_ecoul>
-5.04073

> <r_i_glide_erotb>
0.674922

> <r_i_glide_esite>
-1.21052

> <r_i_glide_emodel>
-73.7103

> <r_i_glide_energy>
-42.1547

> <r_i_glide_einternal>
7.46599

> <i_i_glide_confnum>
217

> <i_i_glide_posenum>
716

$$$$
C00921
                    3D
 Structure written by MMmdl.
 36 38  0  0  1  0            999 V2000
   -0.1396    7.1183    1.5614 C   0  0  0  0  0  0
   -0.4303    6.7255    2.8303 C   0  0  0  0  0  0
    1.0012    6.6448    0.8907 N   0  0  0  0  0  0
   -1.0488    8.0601    0.8946 C   0  0  0  0  0  0
    0.3831    5.8434    3.5123 N   0  0  0  0  0  0
   -1.5490    7.1687    3.5370 N   0  0  0  0  0  0
    1.7988    5.8226    1.4610 C   0  0  0  0  0  0
   -2.1113    8.4453    1.6424 N   0  0  0  0  0  0
   -0.8958    8.4896   -0.2479 O   0  0  0  0  0  0
    1.5816    5.2978    2.8867 C   0  0  0  0  0  0
   -2.3503    7.9990    2.9485 C   0  0  0  0  0  0
    3.0391    5.3035    0.7661 C   0  0  0  0  0  0
   -3.4957    8.5333    3.5004 N   0  0  0  0  0  0
    2.8758    3.9352    0.3017 N   0  0  0  0  0  0
    2.5467    2.8570    1.0396 C   0  0  0  0  0  0
    2.0802    3.0527    2.3550 C   0  0  0  0  0  0
    2.6570    1.5415    0.5366 C   0  0  0  0  0  0
    1.7254    1.9518    3.1586 C   0  0  0  0  0  0
    2.3022    0.4406    1.3405 C   0  0  0  0  0  0
    1.8322    0.6337    2.6596 C   0  0  0  0  0  0
    1.4526   -0.5432    3.5174 C   0  0  0  0  0  0
    0.9043   -0.3328    4.6224 O   0  0  0  0  0  0
    0.1536    5.5616    4.4543 H   0  0  0  0  0  0
   -2.7605    9.0922    1.2211 H   0  0  0  0  0  0
    2.4483    5.5503    3.4979 H   0  0  0  0  0  0
    1.5044    4.2107    2.8625 H   0  0  0  0  0  0
    3.2726    5.9525   -0.0785 H   0  0  0  0  0  0
    3.8849    5.3514    1.4531 H   0  0  0  0  0  0
   -4.1066    9.1800    3.0233 H   0  0  0  0  0  0
   -3.8089    8.3127    4.4348 H   0  0  0  0  0  0
    2.8739    3.8158   -0.7015 H   0  0  0  0  0  0
    1.9899    4.0511    2.7579 H   0  0  0  0  0  0
    3.0147    1.3572   -0.4652 H   0  0  0  0  0  0
    1.3699    2.1304    4.1631 H   0  0  0  0  0  0
    2.3954   -0.5557    0.9328 H   0  0  0  0  0  0
    1.6960   -1.6976    3.1003 O   0  5  0  0  0  0
  1  2  2  0  0  0
  1  3  1  0  0  0
  1  4  1  0  0  0
  2  5  1  0  0  0
  2  6  1  0  0  0
  3  7  2  0  0  0
  4  8  1  0  0  0
  4  9  2  0  0  0
  5 10  1  0  0  0
  5 23  1  0  0  0
  6 11  2  0  0  0
  7 12  1  0  0  0
  7 10  1  0  0  0
  8 11  1  0  0  0
  8 24  1  0  0  0
 10 25  1  0  0  0
 10 26  1  0  0  0
 11 13  1  0  0  0
 12 14  1  0  0  0
 12 27  1  0  0  0
 12 28  1  0  0  0
 13 29  1  0  0  0
 13 30  1  0  0  0
 14 15  1  0  0  0
 14 31  1  0  0  0
 15 16  2  0  0  0
 15 17  1  0  0  0
 16 18  1  0  0  0
 16 32  1  0  0  0
 17 19  2  0  0  0
 17 33  1  0  0  0
 18 20  2  0  0  0
 18 34  1  0  0  0
 19 20  1  0  0  0
 19 35  1  0  0  0
 20 21  1  0  0  0
 21 22  2  0  0  0
 21 36  1  0  0  0
M  CHG  1  36  -1
M  END
> <i_ionizer_Ion_state_n>
2

> <i_ionizer_Tot_Q>
-1

> <s_ionizer_Ion_centers>
36

> <s_ionizer_Ion_types>
OM

> <s_ionizer_Ion_ctrs_in>
22

> <r_ionizer_Ionization_penalty>
0.00246284

> <r_ionizer_Ionization_penalty_charging>
0.00059219

> <r_ionizer_Ionization_penalty_neutral>
0.00187065

> <s_st_EZ_1>
1_3_7_10_Z

> <i_mmod_Serial_Number-OPLS-2005>
358

> <i_i_glide_lignum>
354

> <r_i_docking_score>
-5.65595

> <r_i_glide_gscore>
-5.65595

> <r_i_glide_lipo>
-0.962766

> <r_i_glide_hbond>
-1.32756

> <r_i_glide_metal>
0

> <r_i_glide_eburp>
-1.41441

> <r_i_glide_evdw>
-27.5968

> <r_i_glide_ecoul>
-5.70411

> <r_i_glide_erotb>
0.648721

> <r_i_glide_esite>
0.178211

> <r_i_glide_emodel>
-70.1476

> <r_i_glide_energy>
-33.3009

> <r_i_glide_einternal>
2.32836

> <i_i_glide_confnum>
9

> <i_i_glide_posenum>
836

$$$$
C01152
                    3D
 Structure written by MMmdl.
 23 23  0  0  1  0            999 V2000
    1.7102    2.5923    3.0037 C   0  0  0  0  0  0
    2.8550    1.6217    2.9233 C   0  0  0  0  0  0
    1.6810    3.7921    2.2972 N   0  0  0  0  0  0
    0.5449    2.5558    3.7414 C   0  0  0  0  0  0
    2.8405    0.4728    3.9618 C   0  0  1  0  0  0
    0.5259    4.3827    2.6324 C   0  0  0  0  0  0
    2.6833    4.3039    1.3843 C   0  0  0  0  0  0
   -0.2092    3.7002    3.4988 N   0  0  0  0  0  0
    1.6785   -0.5087    3.7445 C   0  0  0  0  0  0
    1.6169   -1.1042    2.6454 O   0  0  0  0  0  0
    2.8954    1.1984    1.9185 H   0  0  0  0  0  0
    3.7828    2.1833    3.0364 H   0  0  0  0  0  0
    0.1921    1.7968    4.4241 H   0  0  0  0  0  0
    2.7730    0.9021    4.9631 H   0  0  0  0  0  0
    0.2172    5.3387    2.2352 H   0  0  0  0  0  0
    2.4377    5.3236    1.0858 H   0  0  0  0  0  0
    3.6595    4.3042    1.8697 H   0  0  0  0  0  0
    2.7243    3.6747    0.4949 H   0  0  0  0  0  0
    4.0667   -1.0200    4.6088 H   0  0  0  0  0  0
    4.1638   -0.7306    2.9903 H   0  0  0  0  0  0
    4.0916   -0.2999    3.9011 N   0  3  0  0  0  0
    4.8808    0.3094    4.0586 H   0  0  0  0  0  0
    0.8906   -0.6751    4.7007 O   0  5  0  0  0  0
  1  2  1  0  0  0
  1  3  1  0  0  0
  1  4  2  0  0  0
  2  5  1  0  0  0
  2 11  1  0  0  0
  2 12  1  0  0  0
  3  6  1  0  0  0
  3  7  1  0  0  0
  4  8  1  0  0  0
  4 13  1  0  0  0
  5  9  1  0  0  0
  5 14  1  0  0  0
  5 21  1  0  0  0
  6  8  2  0  0  0
  6 15  1  0  0  0
  7 16  1  0  0  0
  7 17  1  0  0  0
  7 18  1  0  0  0
  9 10  2  0  0  0
  9 23  1  0  0  0
 19 21  1  0  0  0
 20 21  1  0  0  0
 21 22  1  0  0  0
M  CHG  2  21   1  23  -1
M  END
> <i_ionizer_Ion_state_n>
6

> <i_ionizer_Tot_Q>
0

> <s_ionizer_Ion_centers>
21_23

> <s_ionizer_Ion_types>
N5_OM

> <s_ionizer_Ion_ctrs_in>
10_11

> <r_ionizer_Ionization_penalty>
0.411459

> <r_ionizer_Ionization_penalty_charging>
0.000779521

> <r_ionizer_Ionization_penalty_neutral>
0.41068

> <s_st_Chirality_1>
5_S_21_9_2_14

> <i_mmod_Serial_Number-OPLS-2005>
403

> <i_i_glide_lignum>
399

> <r_i_docking_score>
-5.65291

> <r_i_glide_gscore>
-5.65291

> <r_i_glide_lipo>
-0.382967

> <r_i_glide_hbond>
-1.14408

> <r_i_glide_metal>
0

> <r_i_glide_eburp>
-2.5

> <r_i_glide_evdw>
-16.5113

> <r_i_glide_ecoul>
-8.96064

> <r_i_glide_erotb>
1.22964

> <r_i_glide_esite>
-0.638521

> <r_i_glide_emodel>
-48.9767

> <r_i_glide_energy>
-25.472

> <r_i_glide_einternal>
0.751117

> <i_i_glide_confnum>
1

> <i_i_glide_posenum>
428

$$$$
C00147
                    3D
 Structure written by MMmdl.
 15 16  0  0  1  0            999 V2000
    2.9352    1.6948    3.5052 C   0  0  0  0  0  0
    2.9393    0.3097    3.8267 C   0  0  0  0  0  0
    1.7914    2.1518    2.8033 C   0  0  0  0  0  0
    4.0971    2.3006    3.9714 N   0  0  0  0  0  0
    1.9658   -0.5962    3.5279 N   0  0  0  0  0  0
    4.1274    0.1026    4.4941 N   0  0  0  0  0  0
    0.8179    1.2604    2.5011 N   0  0  0  0  0  0
    1.6266    3.4257    2.4236 N   0  0  0  0  0  0
    4.7552    1.3248    4.5396 C   0  0  0  0  0  0
    0.9563   -0.0190    2.8684 C   0  0  0  0  0  0
    4.4203   -0.7942    4.8536 H   0  0  0  0  0  0
    0.7918    3.6977    1.9255 H   0  0  0  0  0  0
    2.3396    4.1078    2.6382 H   0  0  0  0  0  0
    5.7179    1.4693    5.0084 H   0  0  0  0  0  0
    0.1420   -0.6739    2.5947 H   0  0  0  0  0  0
  1  2  2  0  0  0
  1  3  1  0  0  0
  1  4  1  0  0  0
  2  5  1  0  0  0
  2  6  1  0  0  0
  3  7  2  0  0  0
  3  8  1  0  0  0
  4  9  2  0  0  0
  5 10  2  0  0  0
  6  9  1  0  0  0
  6 11  1  0  0  0
  7 10  1  0  0  0
  8 12  1  0  0  0
  8 13  1  0  0  0
  9 14  1  0  0  0
 10 15  1  0  0  0
M  END
> <i_ionizer_Ion_state_n>
0

> <i_ionizer_Tot_Q>
0

> <s_ionizer_Ion_centers>


> <s_ionizer_Ion_types>


> <s_ionizer_Ion_ctrs_in>


> <r_ionizer_Ionization_penalty>
1.87357e-05

> <r_ionizer_Ionization_penalty_charging>
0

> <r_ionizer_Ionization_penalty_neutral>
1.87357e-05

> <i_mmod_Serial_Number-OPLS-2005>
107

> <i_i_glide_lignum>
105

> <r_i_docking_score>
-5.65132

> <r_i_glide_gscore>
-5.65132

> <r_i_glide_lipo>
-0.160901

> <r_i_glide_hbond>
-0.45

> <r_i_glide_metal>
0

> <r_i_glide_eburp>
-2.5

> <r_i_glide_evdw>
-20.096

> <r_i_glide_ecoul>
-4.81328

> <r_i_glide_erotb>
0

> <r_i_glide_esite>
-0.45141

> <r_i_glide_emodel>
-32.0501

> <r_i_glide_energy>
-24.9093

> <r_i_glide_einternal>
0

> <i_i_glide_confnum>
1

> <i_i_glide_posenum>
515

$$$$
C00183
                    3D
 Structure written by MMmdl.
 19 18  0  0  1  0            999 V2000
    2.6167    0.4915    4.0621 C   0  0  1  0  0  0
    3.5352    0.2306    2.8361 C   0  0  0  0  0  0
    1.2224    0.9995    3.6415 C   0  0  0  0  0  0
    2.9955   -0.9060    1.9512 C   0  0  0  0  0  0
    3.8423    1.4885    1.9987 C   0  0  0  0  0  0
    0.7608    1.9670    4.2851 O   0  0  0  0  0  0
    3.0679    1.2741    4.6744 H   0  0  0  0  0  0
    4.4932   -0.1239    3.2207 H   0  0  0  0  0  0
    1.9309   -0.4689    5.7284 H   0  0  0  0  0  0
    2.0504   -1.4369    4.4035 H   0  0  0  0  0  0
    3.6989   -1.1474    1.1538 H   0  0  0  0  0  0
    2.8367   -1.8160    2.5306 H   0  0  0  0  0  0
    2.0482   -0.6377    1.4830 H   0  0  0  0  0  0
    4.5279    1.2538    1.1840 H   0  0  0  0  0  0
    2.9397    1.9086    1.5547 H   0  0  0  0  0  0
    4.3141    2.2682    2.5971 H   0  0  0  0  0  0
    2.5003   -0.6998    4.9271 N   0  3  0  0  0  0
    3.4167   -0.9978    5.2274 H   0  0  0  0  0  0
    0.6347    0.4278    2.6944 O   0  5  0  0  0  0
  1  2  1  0  0  0
  1  3  1  0  0  0
  1  7  1  0  0  0
  1 17  1  0  0  0
  2  4  1  0  0  0
  2  5  1  0  0  0
  2  8  1  0  0  0
  3  6  2  0  0  0
  3 19  1  0  0  0
  4 11  1  0  0  0
  4 12  1  0  0  0
  4 13  1  0  0  0
  5 14  1  0  0  0
  5 15  1  0  0  0
  5 16  1  0  0  0
  9 17  1  0  0  0
 10 17  1  0  0  0
 17 18  1  0  0  0
M  CHG  2  17   1  19  -1
M  END
> <i_ionizer_Ion_state_n>
3

> <i_ionizer_Tot_Q>
0

> <s_ionizer_Ion_centers>
17_19

> <s_ionizer_Ion_types>
N5_OM

> <s_ionizer_Ion_ctrs_in>
4_7

> <r_ionizer_Ionization_penalty>
0.000779521

> <r_ionizer_Ionization_penalty_charging>
0.000779521

> <r_ionizer_Ionization_penalty_neutral>
0

> <s_st_Chirality_1>
1_S_17_3_2_7

> <i_mmod_Serial_Number-OPLS-2005>
128

> <i_i_glide_lignum>
126

> <r_i_docking_score>
-5.64873

> <r_i_glide_gscore>
-5.64873

> <r_i_glide_lipo>
-0.329611

> <r_i_glide_hbond>
-1

> <r_i_glide_metal>
0

> <r_i_glide_eburp>
-2.5

> <r_i_glide_evdw>
-9.64054

> <r_i_glide_ecoul>
-5.18921

> <r_i_glide_erotb>
0

> <r_i_glide_esite>
-0.52895

> <r_i_glide_emodel>
-31.8834

> <r_i_glide_energy>
-14.8298

> <r_i_glide_einternal>
0.597149

> <i_i_glide_confnum>
1

> <i_i_glide_posenum>
399

$$$$
C05998
                    3D
 Structure written by MMmdl.
 98100  0  0  1  0            999 V2000
  -11.2734    8.5947   13.8722 N   0  0  0  0  0  0
  -10.9142    7.7866   12.6638 C   0  0  2  0  0  0
  -10.8270    8.3546   15.1533 C   0  0  0  0  0  0
  -12.0478    9.7328   13.9739 C   0  0  0  0  0  0
  -10.0924    8.5538   11.8329 O   0  0  0  0  0  0
  -12.1783    7.4476   11.8713 C   0  0  1  0  0  0
  -11.4062    9.3667   15.9640 C   0  0  0  0  0  0
  -10.0070    7.3531   15.5881 N   0  0  0  0  0  0
  -12.1725   10.2174   15.1814 N   0  0  0  0  0  0
  -10.7428    8.8599   10.5963 C   0  0  1  0  0  0
  -12.2286    8.5413   10.8201 C   0  0  1  0  0  0
  -12.0546    6.1778   11.2643 O   0  0  0  0  0  0
  -11.0990    9.3008   17.3453 C   0  0  0  0  0  0
   -9.7942    7.4290   16.9047 C   0  0  0  0  0  0
  -10.3962   10.3072   10.2010 C   0  0  0  0  0  0
  -12.9809    8.0041    9.7352 O   0  0  0  0  0  0
  -10.2831    8.3131   17.7811 N   0  0  0  0  0  0
  -11.5835   10.1694   18.2420 N   0  0  0  0  0  0
   -8.9975   10.4371   10.0402 O   0  0  0  0  0  0
  -14.3341    8.9797    9.0909 P   0  0  0  0  0  0
   -8.2731   11.8771    9.4909 P   0  0  0  0  0  0
  -15.0334    9.4649   10.3781 O   0  0  0  0  0  0
   -6.5919   11.6318    9.6454 O   0  0  0  0  0  0
   -8.6105   12.0177    8.0565 O   0  0  0  0  0  0
   -5.5123   11.2059   10.8983 P   0  0  0  0  0  0
   -3.9705   11.7014   10.3777 O   0  0  0  0  0  0
   -5.8604   11.9837   12.1101 O   0  0  0  0  0  0
   -3.6110   11.7039    9.0099 C   0  0  0  0  0  0
   -2.1554   12.1852    8.8002 C   0  0  0  0  0  0
   -1.9647   12.4510    7.2676 C   0  0  2  0  0  0
   -1.9157   13.4461    9.6633 C   0  0  0  0  0  0
   -1.1933   11.0700    9.2779 C   0  0  0  0  0  0
   -2.1767   11.2502    6.3293 C   0  0  0  0  0  0
   -0.6913   13.0100    7.0005 O   0  0  0  0  0  0
   -2.4754   11.5464    5.0549 N   0  0  0  0  0  0
   -2.0616   10.0940    6.7358 O   0  0  0  0  0  0
   -2.7288   10.5769    3.9971 C   0  0  0  0  0  0
   -1.5024    9.6890    3.7165 C   0  0  0  0  0  0
   -1.8243    8.4931    2.8094 C   0  0  1  0  0  0
   -1.8727    8.8975    1.4560 O   0  0  0  0  0  0
   -1.0340    6.2167    2.1626 C   0  0  0  0  0  0
    0.1295    5.2316    2.3199 C   0  0  0  0  0  0
   -0.4162    3.6858    3.1019 S   0  0  0  0  0  0
    1.0916    2.7072    2.8804 C   0  0  0  0  0  0
    0.8820    1.2584    2.4243 C   0  0  0  0  0  0
    2.2182    3.1558    3.0880 O   0  0  0  0  0  0
    1.7222    0.1978    3.1841 C   0  0  0  0  0  0
    3.2063    0.3382    2.8050 C   0  0  0  0  0  0
    1.5617    0.2702    4.7153 C   0  0  0  0  0  0
    1.3276   -1.0971    2.7719 O   0  0  0  0  0  0
  -10.3906    6.9203   13.0702 H   0  0  0  0  0  0
  -12.5175   10.2065   13.1260 H   0  0  0  0  0  0
  -13.0708    7.4463   12.4975 H   0  0  0  0  0  0
  -10.3434    8.1703    9.8518 H   0  0  0  0  0  0
  -12.7311    9.4108   11.2393 H   0  0  0  0  0  0
  -11.2029    6.1720   10.8468 H   0  0  0  0  0  0
   -9.1531    6.6647   17.3191 H   0  0  0  0  0  0
  -10.8970   10.5503    9.2639 H   0  0  0  0  0  0
  -10.7441   11.0282   10.9377 H   0  0  0  0  0  0
  -11.3303   10.0841   19.2152 H   0  0  0  0  0  0
  -12.1803   10.9243   17.9337 H   0  0  0  0  0  0
   -3.7261   10.6914    8.6334 H   0  0  0  0  0  0
   -4.3085   12.3254    8.4470 H   0  0  0  0  0  0
   -2.6941   13.2088    6.9766 H   0  0  0  0  0  0
   -0.8930   13.8122    9.5876 H   0  0  0  0  0  0
   -2.5819   14.2615    9.3814 H   0  0  0  0  0  0
   -2.0987   13.2364   10.7176 H   0  0  0  0  0  0
   -0.1507   11.3850    9.2406 H   0  0  0  0  0  0
   -1.3919   10.7802   10.3101 H   0  0  0  0  0  0
   -1.2830   10.1718    8.6694 H   0  0  0  0  0  0
   -0.1373   12.8694    7.7525 H   0  0  0  0  0  0
   -2.5628   12.5216    4.8055 H   0  0  0  0  0  0
   -3.5940    9.9655    4.2585 H   0  0  0  0  0  0
   -3.0007   11.1356    3.1012 H   0  0  0  0  0  0
   -0.7024   10.2830    3.2751 H   0  0  0  0  0  0
   -1.1107    9.3140    4.6627 H   0  0  0  0  0  0
   -2.7511    8.0034    3.1127 H   0  0  0  0  0  0
   -2.2019    9.7835    1.4148 H   0  0  0  0  0  0
   -1.9278    5.8129    2.6401 H   0  0  0  0  0  0
   -1.2652    6.3473    1.1045 H   0  0  0  0  0  0
    0.5590    5.0020    1.3437 H   0  0  0  0  0  0
    0.9183    5.6772    2.9276 H   0  0  0  0  0  0
   -0.1802    1.0266    2.5134 H   0  0  0  0  0  0
    1.1080    1.2035    1.3587 H   0  0  0  0  0  0
    3.8163   -0.4263    3.2882 H   0  0  0  0  0  0
    3.3552    0.2450    1.7285 H   0  0  0  0  0  0
    3.5992    1.3095    3.1074 H   0  0  0  0  0  0
    2.2064   -0.4542    5.2144 H   0  0  0  0  0  0
    1.8263    1.2587    5.0919 H   0  0  0  0  0  0
    0.5400    0.0573    5.0307 H   0  0  0  0  0  0
    0.4647   -1.2749    3.1138 H   0  0  0  0  0  0
  -13.5855   10.0496    8.2656 O   0  5  0  0  0  0
  -15.0996    7.9183    8.2707 O   0  5  0  0  0  0
   -8.6555   12.9610   10.4260 O   0  5  0  0  0  0
   -5.4923    9.7274   10.9853 O   0  5  0  0  0  0
   -0.7080    7.5261    2.7682 N   0  3  0  0  0  0
    0.0577    7.9490    2.2632 H   0  0  0  0  0  0
   -0.4124    7.3567    3.7190 H   0  0  0  0  0  0
  1  2  1  0  0  0
  1  3  1  0  0  0
  1  4  1  0  0  0
  2  5  1  0  0  0
  2  6  1  0  0  0
  2 51  1  0  0  0
  3  7  2  0  0  0
  3  8  1  0  0  0
  4  9  2  0  0  0
  4 52  1  0  0  0
  5 10  1  0  0  0
  6 11  1  0  0  0
  6 12  1  0  0  0
  6 53  1  0  0  0
  7 13  1  0  0  0
  7  9  1  0  0  0
  8 14  2  0  0  0
 10 15  1  0  0  0
 10 11  1  0  0  0
 10 54  1  0  0  0
 11 16  1  0  0  0
 11 55  1  0  0  0
 12 56  1  0  0  0
 13 17  2  0  0  0
 13 18  1  0  0  0
 14 17  1  0  0  0
 14 57  1  0  0  0
 15 19  1  0  0  0
 15 58  1  0  0  0
 15 59  1  0  0  0
 16 20  1  0  0  0
 18 60  1  0  0  0
 18 61  1  0  0  0
 19 21  1  0  0  0
 20 22  2  0  0  0
 20 92  1  0  0  0
 20 93  1  0  0  0
 21 23  1  0  0  0
 21 24  2  0  0  0
 21 94  1  0  0  0
 23 25  1  0  0  0
 25 26  1  0  0  0
 25 27  2  0  0  0
 25 95  1  0  0  0
 26 28  1  0  0  0
 28 29  1  0  0  0
 28 62  1  0  0  0
 28 63  1  0  0  0
 29 30  1  0  0  0
 29 31  1  0  0  0
 29 32  1  0  0  0
 30 33  1  0  0  0
 30 34  1  0  0  0
 30 64  1  0  0  0
 31 65  1  0  0  0
 31 66  1  0  0  0
 31 67  1  0  0  0
 32 68  1  0  0  0
 32 69  1  0  0  0
 32 70  1  0  0  0
 33 35  1  0  0  0
 33 36  2  0  0  0
 34 71  1  0  0  0
 35 37  1  0  0  0
 35 72  1  0  0  0
 37 38  1  0  0  0
 37 73  1  0  0  0
 37 74  1  0  0  0
 38 39  1  0  0  0
 38 75  1  0  0  0
 38 76  1  0  0  0
 39 40  1  0  0  0
 39 77  1  0  0  0
 39 96  1  0  0  0
 40 78  1  0  0  0
 41 42  1  0  0  0
 41 79  1  0  0  0
 41 80  1  0  0  0
 41 96  1  0  0  0
 42 43  1  0  0  0
 42 81  1  0  0  0
 42 82  1  0  0  0
 43 44  1  0  0  0
 44 45  1  0  0  0
 44 46  2  0  0  0
 45 47  1  0  0  0
 45 83  1  0  0  0
 45 84  1  0  0  0
 47 48  1  0  0  0
 47 49  1  0  0  0
 47 50  1  0  0  0
 48 85  1  0  0  0
 48 86  1  0  0  0
 48 87  1  0  0  0
 49 88  1  0  0  0
 49 89  1  0  0  0
 49 90  1  0  0  0
 50 91  1  0  0  0
 96 97  1  0  0  0
 96 98  1  0  0  0
M  CHG  5  92  -1  93  -1  94  -1  95  -1  96   1
M  END
> <i_ionizer_Ion_state_n>
62

> <i_ionizer_Tot_Q>
-3

> <s_ionizer_Ion_centers>
92_93_94_95_96

> <s_ionizer_Ion_types>
OM_OM_OM_OM_N5

> <s_ionizer_Ion_ctrs_in>
22_23_26_30_44

> <r_ionizer_Ionization_penalty>
0.000107817

> <r_ionizer_Ionization_penalty_charging>
8.90812e-05

> <r_ionizer_Ionization_penalty_neutral>
1.87357e-05

> <s_st_Chirality_1>
2_R_5_1_6_51

> <s_st_Chirality_2>
6_R_12_2_11_53

> <s_st_Chirality_3>
10_R_5_11_15_54

> <s_st_Chirality_4>
11_R_16_6_10_55

> <s_st_Chirality_5>
30_R_34_33_29_64

> <s_st_Chirality_6>
39_R_40_96_38_77

> <i_mmod_Serial_Number-OPLS-2005>
843

> <i_i_glide_lignum>
831

> <r_i_docking_score>
-5.64841

> <r_i_glide_gscore>
-5.64841

> <r_i_glide_lipo>
-0.902762

> <r_i_glide_hbond>
-2.19727

> <r_i_glide_metal>
0

> <r_i_glide_eburp>
0.197273

> <r_i_glide_evdw>
-32.5129

> <r_i_glide_ecoul>
-15.0504

> <r_i_glide_erotb>
0.52363

> <r_i_glide_esite>
0.836792

> <r_i_glide_emodel>
-94.9857

> <r_i_glide_energy>
-47.5633

> <r_i_glide_einternal>
13.7122

> <i_i_glide_confnum>
283

> <i_i_glide_posenum>
994

$$$$
C00408
                    3D
 Structure written by MMmdl.
 20 20  0  0  1  0            999 V2000
    0.8972    1.7900    3.0381 C   0  0  1  0  0  0
    1.2087    0.9445    4.2996 C   0  0  0  0  0  0
    0.7366    3.2969    3.3208 C   0  0  0  0  0  0
    1.4224   -0.5328    3.9331 C   0  0  0  0  0  0
    2.1681    0.2024    1.6281 C   0  0  0  0  0  0
   -0.2969    3.6997    3.8994 O   0  0  0  0  0  0
    2.5051   -0.6661    2.8516 C   0  0  0  0  0  0
   -0.0415    1.4421    2.6036 H   0  0  0  0  0  0
    2.1028    1.3236    4.7978 H   0  0  0  0  0  0
    0.3938    1.0222    5.0209 H   0  0  0  0  0  0
    1.7027   -1.1032    4.8192 H   0  0  0  0  0  0
    0.4862   -0.9601    3.5712 H   0  0  0  0  0  0
    1.2653   -0.1649    1.1381 H   0  0  0  0  0  0
    2.9726    0.1521    0.8940 H   0  0  0  0  0  0
    3.4705   -0.3657    3.2611 H   0  0  0  0  0  0
    2.6072   -1.7097    2.5523 H   0  0  0  0  0  0
    1.9655    1.6115    2.0283 N   0  3  0  0  0  0
    1.7192    2.1673    1.2211 H   0  0  0  0  0  0
    2.8236    1.9751    2.4166 H   0  0  0  0  0  0
    1.6699    4.0388    2.9394 O   0  5  0  0  0  0
  1  2  1  0  0  0
  1  3  1  0  0  0
  1  8  1  0  0  0
  1 17  1  0  0  0
  2  4  1  0  0  0
  2  9  1  0  0  0
  2 10  1  0  0  0
  3  6  2  0  0  0
  3 20  1  0  0  0
  4  7  1  0  0  0
  4 11  1  0  0  0
  4 12  1  0  0  0
  5  7  1  0  0  0
  5 13  1  0  0  0
  5 14  1  0  0  0
  5 17  1  0  0  0
  7 15  1  0  0  0
  7 16  1  0  0  0
 17 18  1  0  0  0
 17 19  1  0  0  0
M  CHG  2  17   1  20  -1
M  END
> <i_ionizer_Ion_state_n>
3

> <i_ionizer_Tot_Q>
0

> <s_ionizer_Ion_centers>
17_20

> <s_ionizer_Ion_types>
N5_OM

> <s_ionizer_Ion_ctrs_in>
3_7

> <r_ionizer_Ionization_penalty>
0.000651435

> <r_ionizer_Ionization_penalty_charging>
0.000651435

> <r_ionizer_Ionization_penalty_neutral>
0

> <s_st_Chirality_1>
1_S_17_3_2_8

> <i_mmod_Serial_Number-OPLS-2005>
227

> <i_i_glide_lignum>
225

> <r_i_docking_score>
-5.6445

> <r_i_glide_gscore>
-5.6445

> <r_i_glide_lipo>
-0.530933

> <r_i_glide_hbond>
-0.7

> <r_i_glide_metal>
0

> <r_i_glide_eburp>
-2.5

> <r_i_glide_evdw>
-15.032

> <r_i_glide_ecoul>
-3.74898

> <r_i_glide_erotb>
0

> <r_i_glide_esite>
-0.336105

> <r_i_glide_emodel>
-36.9826

> <r_i_glide_energy>
-18.781

> <r_i_glide_einternal>
0.781258

> <i_i_glide_confnum>
1

> <i_i_glide_posenum>
434

$$$$
C00630
                    3D
 Structure written by MMmdl.
 91 93  0  0  1  0            999 V2000
  -10.0603    8.7241   12.4471 N   0  0  0  0  0  0
  -11.3046    8.6052   11.6233 C   0  0  1  0  0  0
   -9.8486    8.1088   13.6608 C   0  0  0  0  0  0
   -8.8983    9.4271   12.1982 C   0  0  0  0  0  0
  -12.3542    9.6163   12.1083 C   0  0  1  0  0  0
  -10.9903    8.9414   10.2990 O   0  0  0  0  0  0
   -8.5590    8.5249   14.0885 C   0  0  0  0  0  0
  -10.6912    7.2828   14.3472 N   0  0  0  0  0  0
   -7.9851    9.3474   13.1297 N   0  0  0  0  0  0
  -12.9094   10.1372   10.7971 C   0  0  1  0  0  0
  -13.4165    9.0539   12.8488 O   0  0  0  0  0  0
  -11.6610   10.1413    9.9048 C   0  0  1  0  0  0
   -8.1423    8.0364   15.3517 C   0  0  0  0  0  0
  -10.1645    6.9036   15.5147 C   0  0  0  0  0  0
  -13.8573    9.1802   10.3237 O   0  0  0  0  0  0
  -10.7175   11.3368   10.1306 C   0  0  0  0  0  0
   -8.9773    7.2239   16.0406 N   0  0  0  0  0  0
   -6.9592    8.3439   15.8992 N   0  0  0  0  0  0
  -14.6971    9.5234    8.7750 P   0  0  0  0  0  0
  -11.0941   12.4527    9.3500 O   0  0  0  0  0  0
  -15.8622   10.4429    9.2017 O   0  0  0  0  0  0
  -10.0495   13.7835    9.1507 P   0  0  0  0  0  0
   -8.5758   13.1336    8.5922 O   0  0  0  0  0  0
  -10.6069   14.6556    8.0911 O   0  0  0  0  0  0
   -7.4753   13.4341    7.3270 P   0  0  0  0  0  0
   -6.8006   11.9010    7.0065 O   0  0  0  0  0  0
   -8.2253   13.8606    6.1244 O   0  0  0  0  0  0
   -5.7969   11.7105    6.0243 C   0  0  0  0  0  0
   -5.4436   10.2119    5.8266 C   0  0  0  0  0  0
   -4.5005   10.0837    4.5821 C   0  0  2  0  0  0
   -4.7823    9.6782    7.1171 C   0  0  0  0  0  0
   -6.7466    9.4151    5.5856 C   0  0  0  0  0  0
   -4.0520    8.6504    4.2385 C   0  0  0  0  0  0
   -3.3472   10.8920    4.7373 O   0  0  0  0  0  0
   -3.3576    8.5015    3.1006 N   0  0  0  0  0  0
   -4.3024    7.7106    4.9942 O   0  0  0  0  0  0
   -2.8098    7.2366    2.6303 C   0  0  0  0  0  0
   -1.4125    6.9978    3.2281 C   0  0  0  0  0  0
   -0.7386    5.7297    2.6943 C   0  0  0  0  0  0
    0.6002    5.6994    2.7558 N   0  0  0  0  0  0
   -1.4101    4.8057    2.2348 O   0  0  0  0  0  0
    1.4280    4.6858    2.1163 C   0  0  0  0  0  0
    1.0480    3.2851    2.6091 C   0  0  0  0  0  0
    2.1381    2.0173    1.8991 S   0  0  0  0  0  0
    1.1999    0.5396    2.3626 C   0  0  0  0  0  0
    1.8801   -0.3772    3.3863 C   0  0  0  0  0  0
    0.0945    0.2729    1.8912 O   0  0  0  0  0  0
    3.1770   -0.9861    2.8259 C   0  0  0  0  0  0
    2.1281    0.3752    4.7031 C   0  0  0  0  0  0
  -11.6083    7.5605   11.6991 H   0  0  0  0  0  0
   -8.7430   10.0151   11.3055 H   0  0  0  0  0  0
  -11.8726   10.4157   12.6710 H   0  0  0  0  0  0
  -13.3720   11.1188   10.9066 H   0  0  0  0  0  0
  -13.0229    8.6773   13.6249 H   0  0  0  0  0  0
  -11.9099   10.0997    8.8459 H   0  0  0  0  0  0
  -10.7838    6.2549   16.1163 H   0  0  0  0  0  0
  -10.7145   11.6370   11.1734 H   0  0  0  0  0  0
   -9.6964   11.0436    9.8866 H   0  0  0  0  0  0
   -6.7121    7.9743   16.8050 H   0  0  0  0  0  0
   -6.3314    8.9650   15.4090 H   0  0  0  0  0  0
   -6.1195   12.1541    5.0813 H   0  0  0  0  0  0
   -4.9217   12.2778    6.3420 H   0  0  0  0  0  0
   -5.0295   10.4813    3.7141 H   0  0  0  0  0  0
   -3.8482   10.1943    7.3394 H   0  0  0  0  0  0
   -4.5676    8.6116    7.0631 H   0  0  0  0  0  0
   -5.4417    9.8205    7.9718 H   0  0  0  0  0  0
   -6.5627    8.3460    5.4795 H   0  0  0  0  0  0
   -7.4406    9.5259    6.4191 H   0  0  0  0  0  0
   -7.2584    9.7539    4.6844 H   0  0  0  0  0  0
   -2.9016   10.9438    3.9060 H   0  0  0  0  0  0
   -3.2114    9.3147    2.5202 H   0  0  0  0  0  0
   -3.4856    6.4266    2.9110 H   0  0  0  0  0  0
   -2.7599    7.2537    1.5400 H   0  0  0  0  0  0
   -0.7642    7.8479    3.0121 H   0  0  0  0  0  0
   -1.4886    6.9277    4.3144 H   0  0  0  0  0  0
    1.0733    6.4228    3.2776 H   0  0  0  0  0  0
    1.3044    4.7472    1.0338 H   0  0  0  0  0  0
    2.4783    4.8871    2.3337 H   0  0  0  0  0  0
    1.1140    3.2414    3.6971 H   0  0  0  0  0  0
    0.0164    3.0604    2.3347 H   0  0  0  0  0  0
    1.1939   -1.1995    3.5927 H   0  0  0  0  0  0
    3.5942   -1.7168    3.5192 H   0  0  0  0  0  0
    2.9991   -1.4987    1.8797 H   0  0  0  0  0  0
    3.9379   -0.2234    2.6546 H   0  0  0  0  0  0
    2.5381   -0.2921    5.4616 H   0  0  0  0  0  0
    2.8345    1.1953    4.5673 H   0  0  0  0  0  0
    1.2036    0.7941    5.1026 H   0  0  0  0  0  0
  -13.5723   10.1861    7.9492 O   0  5  0  0  0  0
  -15.0983    8.0992    8.3315 O   0  5  0  0  0  0
   -9.7967   14.3584   10.4917 O   0  5  0  0  0  0
   -6.4045   14.3070    7.8617 O   0  5  0  0  0  0
  1  2  1  0  0  0
  1  3  1  0  0  0
  1  4  1  0  0  0
  2  5  1  0  0  0
  2  6  1  0  0  0
  2 50  1  0  0  0
  3  7  2  0  0  0
  3  8  1  0  0  0
  4  9  2  0  0  0
  4 51  1  0  0  0
  5 10  1  0  0  0
  5 11  1  0  0  0
  5 52  1  0  0  0
  6 12  1  0  0  0
  7 13  1  0  0  0
  7  9  1  0  0  0
  8 14  2  0  0  0
 10 15  1  0  0  0
 10 12  1  0  0  0
 10 53  1  0  0  0
 11 54  1  0  0  0
 12 16  1  0  0  0
 12 55  1  0  0  0
 13 17  2  0  0  0
 13 18  1  0  0  0
 14 17  1  0  0  0
 14 56  1  0  0  0
 15 19  1  0  0  0
 16 20  1  0  0  0
 16 57  1  0  0  0
 16 58  1  0  0  0
 18 59  1  0  0  0
 18 60  1  0  0  0
 19 21  2  0  0  0
 19 88  1  0  0  0
 19 89  1  0  0  0
 20 22  1  0  0  0
 22 23  1  0  0  0
 22 24  2  0  0  0
 22 90  1  0  0  0
 23 25  1  0  0  0
 25 26  1  0  0  0
 25 27  2  0  0  0
 25 91  1  0  0  0
 26 28  1  0  0  0
 28 29  1  0  0  0
 28 61  1  0  0  0
 28 62  1  0  0  0
 29 30  1  0  0  0
 29 31  1  0  0  0
 29 32  1  0  0  0
 30 33  1  0  0  0
 30 34  1  0  0  0
 30 63  1  0  0  0
 31 64  1  0  0  0
 31 65  1  0  0  0
 31 66  1  0  0  0
 32 67  1  0  0  0
 32 68  1  0  0  0
 32 69  1  0  0  0
 33 35  1  0  0  0
 33 36  2  0  0  0
 34 70  1  0  0  0
 35 37  1  0  0  0
 35 71  1  0  0  0
 37 38  1  0  0  0
 37 72  1  0  0  0
 37 73  1  0  0  0
 38 39  1  0  0  0
 38 74  1  0  0  0
 38 75  1  0  0  0
 39 40  1  0  0  0
 39 41  2  0  0  0
 40 42  1  0  0  0
 40 76  1  0  0  0
 42 43  1  0  0  0
 42 77  1  0  0  0
 42 78  1  0  0  0
 43 44  1  0  0  0
 43 79  1  0  0  0
 43 80  1  0  0  0
 44 45  1  0  0  0
 45 46  1  0  0  0
 45 47  2  0  0  0
 46 48  1  0  0  0
 46 49  1  0  0  0
 46 81  1  0  0  0
 48 82  1  0  0  0
 48 83  1  0  0  0
 48 84  1  0  0  0
 49 85  1  0  0  0
 49 86  1  0  0  0
 49 87  1  0  0  0
M  CHG  4  88  -1  89  -1  90  -1  91  -1
M  END
> <i_ionizer_Ion_state_n>
30

> <i_ionizer_Tot_Q>
-4

> <s_ionizer_Ion_centers>
88_89_90_91

> <s_ionizer_Ion_types>
OM_OM_OM_OM

> <s_ionizer_Ion_ctrs_in>
21_22_26_30

> <r_ionizer_Ionization_penalty>
4.85714e-05

> <r_ionizer_Ionization_penalty_charging>
2.98356e-05

> <r_ionizer_Ionization_penalty_neutral>
1.87357e-05

> <s_st_Chirality_1>
2_R_6_1_5_50

> <s_st_Chirality_2>
5_R_11_2_10_52

> <s_st_Chirality_3>
10_R_15_5_12_53

> <s_st_Chirality_4>
12_R_6_10_16_55

> <s_st_Chirality_5>
30_R_34_33_29_63

> <i_mmod_Serial_Number-OPLS-2005>
299

> <i_i_glide_lignum>
297

> <r_i_docking_score>
-5.64393

> <r_i_glide_gscore>
-5.64393

> <r_i_glide_lipo>
-0.963691

> <r_i_glide_hbond>
-1.46751

> <r_i_glide_metal>
0

> <r_i_glide_eburp>
-1.11022e-16

> <r_i_glide_evdw>
-39.6317

> <r_i_glide_ecoul>
-7.92012

> <r_i_glide_erotb>
0.515489

> <r_i_glide_esite>
0.234326

> <r_i_glide_emodel>
-93.0598

> <r_i_glide_energy>
-47.5519

> <r_i_glide_einternal>
9.8662

> <i_i_glide_confnum>
300

> <i_i_glide_posenum>
438

$$$$
C00148
                    3D
 Structure written by MMmdl.
 17 17  0  0  1  0            999 V2000
    2.5198    0.3691    3.9124 C   0  0  2  0  0  0
    1.4741   -0.2946    2.9955 C   0  0  0  0  0  0
    2.8757    1.7920    3.4357 C   0  0  0  0  0  0
    1.6706   -1.4934    2.7009 O   0  0  0  0  0  0
    4.2059    1.6223    2.7069 C   0  0  0  0  0  0
    4.8788    0.5051    3.4993 C   0  0  0  0  0  0
    2.1317    0.3978    4.9318 H   0  0  0  0  0  0
    2.1169    2.2489    2.7982 H   0  0  0  0  0  0
    3.0066    2.4449    4.2996 H   0  0  0  0  0  0
    4.0279    1.2983    1.6803 H   0  0  0  0  0  0
    4.7962    2.5386    2.6762 H   0  0  0  0  0  0
    5.3398    0.9100    4.4012 H   0  0  0  0  0  0
    5.6473   -0.0160    2.9280 H   0  0  0  0  0  0
    3.7846   -0.3997    3.8930 N   0  3  0  0  0  0
    3.9622   -0.8425    4.7824 H   0  0  0  0  0  0
    3.6598   -1.1022    3.1746 H   0  0  0  0  0  0
    0.5019    0.3901    2.6000 O   0  5  0  0  0  0
  1  2  1  0  0  0
  1  3  1  0  0  0
  1  7  1  0  0  0
  1 14  1  0  0  0
  2  4  2  0  0  0
  2 17  1  0  0  0
  3  5  1  0  0  0
  3  8  1  0  0  0
  3  9  1  0  0  0
  5  6  1  0  0  0
  5 10  1  0  0  0
  5 11  1  0  0  0
  6 12  1  0  0  0
  6 13  1  0  0  0
  6 14  1  0  0  0
 14 15  1  0  0  0
 14 16  1  0  0  0
M  CHG  2  14   1  17  -1
M  END
> <i_ionizer_Ion_state_n>
3

> <i_ionizer_Tot_Q>
0

> <s_ionizer_Ion_centers>
14_17

> <s_ionizer_Ion_types>
N5_OM

> <s_ionizer_Ion_ctrs_in>
4_5

> <r_ionizer_Ionization_penalty>
0.000651435

> <r_ionizer_Ionization_penalty_charging>
0.000651435

> <r_ionizer_Ionization_penalty_neutral>
0

> <s_st_Chirality_1>
1_S_14_2_3_7

> <i_mmod_Serial_Number-OPLS-2005>
108

> <i_i_glide_lignum>
106

> <r_i_docking_score>
-5.63907

> <r_i_glide_gscore>
-5.63907

> <r_i_glide_lipo>
-0.360912

> <r_i_glide_hbond>
-0.839089

> <r_i_glide_metal>
0

> <r_i_glide_eburp>
-2.5

> <r_i_glide_evdw>
-11.4979

> <r_i_glide_ecoul>
-6.19129

> <r_i_glide_erotb>
0

> <r_i_glide_esite>
-0.400107

> <r_i_glide_emodel>
-34.9107

> <r_i_glide_energy>
-17.6892

> <r_i_glide_einternal>
0.300061

> <i_i_glide_confnum>
1

> <i_i_glide_posenum>
276

$$$$
C00128
                    3D
 Structure written by MMmdl.
 70 72  0  0  1  0            999 V2000
    3.6061    2.7959    3.1170 C   0  0  2  0  0  0
    4.3489    2.1393    2.0926 O   0  0  0  0  0  0
    3.2545    1.6895    4.1404 C   0  0  0  0  0  0
    2.4446    3.4443    2.5891 O   0  0  0  0  0  0
    4.5502    3.8577    3.7232 C   0  0  0  0  0  0
    3.6278    1.1799    1.3237 C   0  0  2  0  0  0
    2.4237    0.5742    3.4968 C   0  0  1  0  0  0
    1.1238    4.0269    3.5171 P   0  0  0  0  0  0
    5.2444    3.5007    4.7016 O   0  0  0  0  0  0
    3.0804    0.0244    2.2126 C   0  0  1  0  0  0
    4.5849    0.7728    0.1666 C   0  0  2  0  0  0
    2.2744   -0.4562    4.4539 O   0  0  0  0  0  0
    0.0274    4.5576    2.3291 O   0  0  0  0  0  0
    0.4782    2.9143    4.2474 O   0  0  0  0  0  0
    2.0651   -0.7012    1.4480 N   0  0  0  0  0  0
    5.4507   -0.4966    0.3822 C   0  0  1  0  0  0
    5.4814    1.8403   -0.0822 O   0  0  0  0  0  0
   -1.2342    5.0819    2.6912 C   0  0  0  0  0  0
    0.8317   -0.2613    1.1606 C   0  0  0  0  0  0
    6.4779   -0.7694   -0.7356 C   0  0  0  0  0  0
    6.1822   -0.3045    1.5810 O   0  0  0  0  0  0
   -1.6819    6.1695    1.7016 C   0  0  1  0  0  0
    0.2976    0.8553    2.0491 C   0  0  0  0  0  0
    0.1442   -0.7005    0.2405 O   0  0  0  0  0  0
    5.9642   -1.7123   -1.6548 O   0  0  0  0  0  0
   -2.8790    6.7803    2.1838 O   0  0  0  0  0  0
   -0.6945    7.3236    1.5207 C   0  0  2  0  0  0
   -2.8594    8.1665    1.9911 C   0  0  2  0  0  0
   -1.5939    8.5025    1.1853 C   0  0  2  0  0  0
    0.2839    7.0822    0.5268 O   0  0  0  0  0  0
   -2.8299    8.8637    3.3360 N   0  0  0  0  0  0
   -1.8862    8.6209   -0.1953 O   0  0  0  0  0  0
   -3.5981    8.3150    4.3898 C   0  0  0  0  0  0
   -2.0669   10.0016    3.5651 C   0  0  0  0  0  0
   -3.5670    8.9606    5.5964 N   0  0  0  0  0  0
   -4.2764    7.3010    4.2303 O   0  0  0  0  0  0
   -2.0411   10.6206    4.7648 C   0  0  0  0  0  0
   -2.8509   10.0460    5.8138 C   0  0  0  0  0  0
   -2.8859   10.6111    7.0278 N   0  0  0  0  0  0
    4.1749    1.2498    4.5294 H   0  0  0  0  0  0
    2.7287    2.0981    5.0031 H   0  0  0  0  0  0
    2.7854    1.7212    0.8945 H   0  0  0  0  0  0
    1.4426    0.9728    3.2599 H   0  0  0  0  0  0
    3.9066   -0.6280    2.4999 H   0  0  0  0  0  0
    3.9802    0.6229   -0.7296 H   0  0  0  0  0  0
    3.1312   -0.8077    4.6444 H   0  0  0  0  0  0
    2.3317   -1.6081    1.0953 H   0  0  0  0  0  0
    4.8088   -1.3677    0.5138 H   0  0  0  0  0  0
    5.9102    2.0508    0.7338 H   0  0  0  0  0  0
   -1.9624    4.2704    2.6880 H   0  0  0  0  0  0
   -1.1875    5.4651    3.7106 H   0  0  0  0  0  0
    6.6882    0.1345   -1.3048 H   0  0  0  0  0  0
    7.4264   -1.1228   -0.3292 H   0  0  0  0  0  0
    6.9949    0.1283    1.3694 H   0  0  0  0  0  0
   -1.9197    5.7252    0.7338 H   0  0  0  0  0  0
    0.2103    0.5111    3.0791 H   0  0  0  0  0  0
    0.9681    1.7147    2.0252 H   0  0  0  0  0  0
   -0.6873    1.1816    1.7141 H   0  0  0  0  0  0
    5.1874   -1.3494   -2.0525 H   0  0  0  0  0  0
   -0.2011    7.5359    2.4685 H   0  0  0  0  0  0
   -3.7907    8.4949    1.5255 H   0  0  0  0  0  0
   -1.1482    9.4435    1.5089 H   0  0  0  0  0  0
    0.6910    7.9048    0.3024 H   0  0  0  0  0  0
   -2.2950    9.4601   -0.3442 H   0  0  0  0  0  0
   -1.4612   10.4298    2.7823 H   0  0  0  0  0  0
   -1.4316   11.5019    4.8976 H   0  0  0  0  0  0
   -2.3638   11.4563    7.2091 H   0  0  0  0  0  0
   -3.4496   10.1955    7.7550 H   0  0  0  0  0  0
    4.5488    5.0122    3.2383 O   0  5  0  0  0  0
    1.5888    5.2170    4.2644 O   0  5  0  0  0  0
  1  2  1  0  0  0
  1  3  1  0  0  0
  1  4  1  0  0  0
  1  5  1  0  0  0
  2  6  1  0  0  0
  3  7  1  0  0  0
  3 40  1  0  0  0
  3 41  1  0  0  0
  4  8  1  0  0  0
  5  9  2  0  0  0
  5 69  1  0  0  0
  6 10  1  0  0  0
  6 11  1  0  0  0
  6 42  1  0  0  0
  7 12  1  0  0  0
  7 10  1  0  0  0
  7 43  1  0  0  0
  8 13  1  0  0  0
  8 14  2  0  0  0
  8 70  1  0  0  0
 10 15  1  0  0  0
 10 44  1  0  0  0
 11 16  1  0  0  0
 11 17  1  0  0  0
 11 45  1  0  0  0
 12 46  1  0  0  0
 13 18  1  0  0  0
 15 19  1  0  0  0
 15 47  1  0  0  0
 16 20  1  0  0  0
 16 21  1  0  0  0
 16 48  1  0  0  0
 17 49  1  0  0  0
 18 22  1  0  0  0
 18 50  1  0  0  0
 18 51  1  0  0  0
 19 23  1  0  0  0
 19 24  2  0  0  0
 20 25  1  0  0  0
 20 52  1  0  0  0
 20 53  1  0  0  0
 21 54  1  0  0  0
 22 26  1  0  0  0
 22 27  1  0  0  0
 22 55  1  0  0  0
 23 56  1  0  0  0
 23 57  1  0  0  0
 23 58  1  0  0  0
 25 59  1  0  0  0
 26 28  1  0  0  0
 27 29  1  0  0  0
 27 30  1  0  0  0
 27 60  1  0  0  0
 28 31  1  0  0  0
 28 29  1  0  0  0
 28 61  1  0  0  0
 29 32  1  0  0  0
 29 62  1  0  0  0
 30 63  1  0  0  0
 31 33  1  0  0  0
 31 34  1  0  0  0
 32 64  1  0  0  0
 33 35  1  0  0  0
 33 36  2  0  0  0
 34 37  2  0  0  0
 34 65  1  0  0  0
 35 38  2  0  0  0
 37 38  1  0  0  0
 37 66  1  0  0  0
 38 39  1  0  0  0
 39 67  1  0  0  0
 39 68  1  0  0  0
M  CHG  2  69  -1  70  -1
M  END
> <i_ionizer_Ion_state_n>
3

> <i_ionizer_Tot_Q>
-2

> <s_ionizer_Ion_centers>
69_70

> <s_ionizer_Ion_types>
OM_OM

> <s_ionizer_Ion_ctrs_in>
9_15

> <r_ionizer_Ionization_penalty>
0.000599649

> <r_ionizer_Ionization_penalty_charging>
0.000599649

> <r_ionizer_Ionization_penalty_neutral>
0

> <s_st_Chirality_1>
1_R_4_2_5_3

> <s_st_Chirality_2>
6_R_2_11_10_42

> <s_st_Chirality_3>
7_S_12_10_3_43

> <s_st_Chirality_4>
10_R_15_6_7_44

> <s_st_Chirality_5>
11_R_17_16_6_45

> <s_st_Chirality_6>
22_R_26_27_18_55

> <s_st_Chirality_7>
27_R_30_29_22_60

> <s_st_Chirality_8>
28_R_26_31_29_61

> <s_st_Chirality_9>
29_R_32_28_27_62

> <s_st_Chirality_10>
16_R_21_11_20_48

> <i_mmod_Serial_Number-OPLS-2005>
92

> <i_i_glide_lignum>
90

> <r_i_docking_score>
-5.63387

> <r_i_glide_gscore>
-5.63387

> <r_i_glide_lipo>
-1.3263

> <r_i_glide_hbond>
-1.57071

> <r_i_glide_metal>
0

> <r_i_glide_eburp>
3.5345e-17

> <r_i_glide_evdw>
-21.2387

> <r_i_glide_ecoul>
-18.0993

> <r_i_glide_erotb>
0.497396

> <r_i_glide_esite>
0.274772

> <r_i_glide_emodel>
-75.113

> <r_i_glide_energy>
-39.338

> <r_i_glide_einternal>
56.0867

> <i_i_glide_confnum>
45

> <i_i_glide_posenum>
590

$$$$
C05127
                    3D
 Structure written by MMmdl.
 22 22  0  0  1  0            999 V2000
    4.5220    0.6404    4.2907 C   0  0  0  0  0  0
    3.9254    1.8222    3.9248 C   0  0  0  0  0  0
    5.9397    0.3133    4.6318 C   0  0  0  0  0  0
    2.5954    1.5570    3.7287 N   0  0  0  0  0  0
    2.3506    0.2631    3.9581 C   0  0  0  0  0  0
    6.2196    0.4898    6.1325 C   0  0  0  0  0  0
    1.5477    2.4943    3.3287 C   0  0  0  0  0  0
    4.3412    2.8110    3.7919 H   0  0  0  0  0  0
    6.1496   -0.7118    4.3232 H   0  0  0  0  0  0
    6.5969    0.9582    4.0468 H   0  0  0  0  0  0
    1.3995   -0.2341    3.8818 H   0  0  0  0  0  0
    6.8421    1.3696    6.3002 H   0  0  0  0  0  0
    5.2881    0.6468    6.6777 H   0  0  0  0  0  0
    0.7792    2.5263    4.1017 H   0  0  0  0  0  0
    1.9754    3.4891    3.2005 H   0  0  0  0  0  0
    1.1093    2.1633    2.3867 H   0  0  0  0  0  0
    7.0732   -0.5358    7.6838 H   0  0  0  0  0  0
    6.3280   -1.5078    6.5826 H   0  0  0  0  0  0
    3.5168   -0.2947    4.2992 N   0  3  0  0  0  0
    3.6353   -1.2748    4.5247 H   0  0  0  0  0  0
    6.9043   -0.6862    6.6990 N   0  3  0  0  0  0
    7.7875   -0.8270    6.2289 H   0  0  0  0  0  0
  1  2  2  0  0  0
  1  3  1  0  0  0
  1 19  1  0  0  0
  2  4  1  0  0  0
  2  8  1  0  0  0
  3  6  1  0  0  0
  3  9  1  0  0  0
  3 10  1  0  0  0
  4  7  1  0  0  0
  4  5  1  0  0  0
  5 11  1  0  0  0
  5 19  2  0  0  0
  6 12  1  0  0  0
  6 13  1  0  0  0
  6 21  1  0  0  0
  7 14  1  0  0  0
  7 15  1  0  0  0
  7 16  1  0  0  0
 17 21  1  0  0  0
 18 21  1  0  0  0
 19 20  1  0  0  0
 21 22  1  0  0  0
M  CHG  2  19   1  21   1
M  END
> <i_ionizer_Ion_state_n>
3

> <i_ionizer_Tot_Q>
2

> <s_ionizer_Ion_centers>
19_21

> <s_ionizer_Ion_types>
N4_N5

> <s_ionizer_Ion_ctrs_in>
3_9

> <r_ionizer_Ionization_penalty>
0.410867

> <r_ionizer_Ionization_penalty_charging>
0.410867

> <r_ionizer_Ionization_penalty_neutral>
0

> <i_mmod_Serial_Number-OPLS-2005>
630

> <i_i_glide_lignum>
623

> <r_i_docking_score>
-5.63353

> <r_i_glide_gscore>
-5.63353

> <r_i_glide_lipo>
-0.523495

> <r_i_glide_hbond>
-1.27869

> <r_i_glide_metal>
0

> <r_i_glide_eburp>
-2.5

> <r_i_glide_evdw>
-13.7804

> <r_i_glide_ecoul>
-8.60973

> <r_i_glide_erotb>
0.968975

> <r_i_glide_esite>
-0.336914

> <r_i_glide_emodel>
-40.8979

> <r_i_glide_energy>
-22.3901

> <r_i_glide_einternal>
5.1486

> <i_i_glide_confnum>
1

> <i_i_glide_posenum>
714

$$$$
C00199
                    3D
 Structure written by MMmdl.
 23 22  0  0  1  0            999 V2000
    3.0383   -0.5668    2.5403 C   0  0  2  0  0  0
    2.9394    0.5484    3.6138 C   0  0  1  0  0  0
    4.1157   -0.2772    1.4778 C   0  0  0  0  0  0
    1.7838   -0.7065    1.8942 O   0  0  0  0  0  0
    1.7171    0.3927    4.5434 C   0  0  0  0  0  0
    4.0841    0.4908    4.4402 O   0  0  0  0  0  0
    4.1815   -1.2243    0.2742 C   0  0  0  0  0  0
    4.8910    0.6758    1.5868 O   0  0  0  0  0  0
    1.0289    1.6223    4.7160 O   0  0  0  0  0  0
    5.3498   -1.0057   -0.4932 O   0  0  0  0  0  0
    0.6951    2.5656    3.2277 P   0  0  0  0  0  0
   -0.3001    3.6341    3.7317 O   0  0  0  0  0  0
    3.2734   -1.5168    3.0211 H   0  0  0  0  0  0
    2.8983    1.5205    3.1209 H   0  0  0  0  0  0
    1.5972    0.0943    1.4287 H   0  0  0  0  0  0
    0.9911   -0.2882    4.1014 H   0  0  0  0  0  0
    1.9981   -0.0490    5.4996 H   0  0  0  0  0  0
    4.1143   -0.3866    4.8172 H   0  0  0  0  0  0
    4.1776   -2.2558    0.6262 H   0  0  0  0  0  0
    3.3012   -1.0840   -0.3532 H   0  0  0  0  0  0
    5.0929   -0.7406   -1.3629 H   0  0  0  0  0  0
    2.1025    3.0794    2.8492 O   0  5  0  0  0  0
    0.1053    1.4797    2.3019 O   0  5  0  0  0  0
  1  2  1  0  0  0
  1  3  1  0  0  0
  1  4  1  0  0  0
  1 13  1  0  0  0
  2  5  1  0  0  0
  2  6  1  0  0  0
  2 14  1  0  0  0
  3  7  1  0  0  0
  3  8  2  0  0  0
  4 15  1  0  0  0
  5  9  1  0  0  0
  5 16  1  0  0  0
  5 17  1  0  0  0
  6 18  1  0  0  0
  7 10  1  0  0  0
  7 19  1  0  0  0
  7 20  1  0  0  0
  9 11  1  0  0  0
 10 21  1  0  0  0
 11 12  2  0  0  0
 11 22  1  0  0  0
 11 23  1  0  0  0
M  CHG  2  22  -1  23  -1
M  END
> <i_ionizer_Ion_state_n>
3

> <i_ionizer_Tot_Q>
-2

> <s_ionizer_Ion_centers>
22_23

> <s_ionizer_Ion_types>
OM_OM

> <s_ionizer_Ion_ctrs_in>
12_13

> <r_ionizer_Ionization_penalty>
1.49178e-05

> <r_ionizer_Ionization_penalty_charging>
1.49178e-05

> <r_ionizer_Ionization_penalty_neutral>
0

> <s_st_Chirality_1>
1_R_4_3_2_13

> <s_st_Chirality_2>
2_R_6_1_5_14

> <i_mmod_Serial_Number-OPLS-2005>
138

> <i_i_glide_lignum>
136

> <r_i_docking_score>
-5.63337

> <r_i_glide_gscore>
-5.63337

> <r_i_glide_lipo>
-0.407105

> <r_i_glide_hbond>
-1.50922

> <r_i_glide_metal>
0

> <r_i_glide_eburp>
-2.05988

> <r_i_glide_evdw>
-18.3954

> <r_i_glide_ecoul>
-15.8174

> <r_i_glide_erotb>
1.87072

> <r_i_glide_esite>
-0.474504

> <r_i_glide_emodel>
-62.0537

> <r_i_glide_energy>
-34.2128

> <r_i_glide_einternal>
12.1447

> <i_i_glide_confnum>
57

> <i_i_glide_posenum>
21

$$$$
C01157
                    3D
 Structure written by MMmdl.
 18 18  0  0  1  0            999 V2000
    2.0267    1.2998    4.1643 C   0  0  1  0  0  0
    3.3504    1.7972    3.5510 C   0  0  0  0  0  0
    0.8053    1.8834    3.4290 C   0  0  0  0  0  0
    4.2770    0.5855    3.6113 C   0  0  2  0  0  0
    3.3105   -0.5781    3.3970 C   0  0  0  0  0  0
    0.4405    1.2883    2.3923 O   0  0  0  0  0  0
    4.9528    0.5000    4.8479 O   0  0  0  0  0  0
    1.9701    1.5721    5.2193 H   0  0  0  0  0  0
    3.2294    2.1900    2.5400 H   0  0  0  0  0  0
    3.7589    2.6028    4.1634 H   0  0  0  0  0  0
    5.0005    0.6306    2.7954 H   0  0  0  0  0  0
    3.7003   -1.4645    3.8999 H   0  0  0  0  0  0
    3.1796   -0.8150    2.3408 H   0  0  0  0  0  0
    5.0211   -0.4096    5.0961 H   0  0  0  0  0  0
    2.0452   -0.1753    4.0380 N   0  3  0  0  0  0
    1.9205   -0.6233    4.9337 H   0  0  0  0  0  0
    1.2726   -0.4023    3.4243 H   0  0  0  0  0  0
    0.2543    2.9056    3.9000 O   0  5  0  0  0  0
  1  2  1  0  0  0
  1  3  1  0  0  0
  1  8  1  0  0  0
  1 15  1  0  0  0
  2  4  1  0  0  0
  2  9  1  0  0  0
  2 10  1  0  0  0
  3  6  2  0  0  0
  3 18  1  0  0  0
  4  7  1  0  0  0
  4  5  1  0  0  0
  4 11  1  0  0  0
  5 12  1  0  0  0
  5 13  1  0  0  0
  5 15  1  0  0  0
  7 14  1  0  0  0
 15 16  1  0  0  0
 15 17  1  0  0  0
M  CHG  2  15   1  18  -1
M  END
> <i_ionizer_Ion_state_n>
3

> <i_ionizer_Tot_Q>
0

> <s_ionizer_Ion_centers>
15_18

> <s_ionizer_Ion_types>
N5_OM

> <s_ionizer_Ion_ctrs_in>
3_7

> <r_ionizer_Ionization_penalty>
0.000651435

> <r_ionizer_Ionization_penalty_charging>
0.000651435

> <r_ionizer_Ionization_penalty_neutral>
0

> <s_st_Chirality_1>
1_S_15_3_2_8

> <s_st_Chirality_2>
4_R_7_5_2_11

> <i_mmod_Serial_Number-OPLS-2005>
405

> <i_i_glide_lignum>
401

> <r_i_docking_score>
-5.62025

> <r_i_glide_gscore>
-5.62025

> <r_i_glide_lipo>
-0.384905

> <r_i_glide_hbond>
-0.873435

> <r_i_glide_metal>
0

> <r_i_glide_eburp>
-2.5

> <r_i_glide_evdw>
-12.9129

> <r_i_glide_ecoul>
-6.56114

> <r_i_glide_erotb>
0

> <r_i_glide_esite>
-0.172772

> <r_i_glide_emodel>
-39.3483

> <r_i_glide_energy>
-19.474

> <r_i_glide_einternal>
1.51171

> <i_i_glide_confnum>
2

> <i_i_glide_posenum>
213

$$$$
C00818
                    3D
 Structure written by MMmdl.
 22 21  0  0  1  0            999 V2000
    3.3156    0.9923    1.9902 C   0  0  2  0  0  0
    1.8969    0.5283    2.4224 C   0  0  2  0  0  0
    3.9912    0.0659    0.9332 C   0  0  2  0  0  0
    4.1264    1.1586    3.1432 O   0  0  0  0  0  0
    1.3491    1.2576    3.6872 C   0  0  2  0  0  0
    1.8927   -0.8821    2.5815 O   0  0  0  0  0  0
    5.2720    0.6330    0.2872 C   0  0  0  0  0  0
    3.0745   -0.2409   -0.0998 O   0  0  0  0  0  0
    0.8555    2.6998    3.4506 C   0  0  0  0  0  0
    2.3404    1.2903    4.6960 O   0  0  0  0  0  0
    5.2087    1.6953   -0.3724 O   0  0  0  0  0  0
    0.0978    3.2353    4.2913 O   0  0  0  0  0  0
    3.2267    1.9825    1.5411 H   0  0  0  0  0  0
    1.2068    0.7397    1.6043 H   0  0  0  0  0  0
    4.2770   -0.8725    1.4093 H   0  0  0  0  0  0
    4.2011    0.3065    3.5532 H   0  0  0  0  0  0
    0.4972    0.7022    4.0806 H   0  0  0  0  0  0
    2.5200   -1.0846    3.2634 H   0  0  0  0  0  0
    3.5830   -0.4652   -0.8651 H   0  0  0  0  0  0
    2.6151    0.3976    4.8449 H   0  0  0  0  0  0
    6.3160   -0.0348    0.4617 O   0  5  0  0  0  0
    1.2485    3.2477    2.3963 O   0  5  0  0  0  0
  1  2  1  0  0  0
  1  3  1  0  0  0
  1  4  1  0  0  0
  1 13  1  0  0  0
  2  5  1  0  0  0
  2  6  1  0  0  0
  2 14  1  0  0  0
  3  7  1  0  0  0
  3  8  1  0  0  0
  3 15  1  0  0  0
  4 16  1  0  0  0
  5  9  1  0  0  0
  5 10  1  0  0  0
  5 17  1  0  0  0
  6 18  1  0  0  0
  7 11  2  0  0  0
  7 21  1  0  0  0
  8 19  1  0  0  0
  9 12  2  0  0  0
  9 22  1  0  0  0
 10 20  1  0  0  0
M  CHG  2  21  -1  22  -1
M  END
> <i_ionizer_Ion_state_n>
3

> <i_ionizer_Tot_Q>
-2

> <s_ionizer_Ion_centers>
21_22

> <s_ionizer_Ion_types>
OM_OM

> <s_ionizer_Ion_ctrs_in>
11_13

> <r_ionizer_Ionization_penalty>
0.00118438

> <r_ionizer_Ionization_penalty_charging>
0.00118438

> <r_ionizer_Ionization_penalty_neutral>
0

> <s_st_Chirality_1>
1_R_4_3_2_13

> <s_st_Chirality_2>
2_R_6_5_1_14

> <s_st_Chirality_3>
3_R_8_7_1_15

> <s_st_Chirality_4>
5_R_10_9_2_17

> <i_mmod_Serial_Number-OPLS-2005>
340

> <i_i_glide_lignum>
337

> <r_i_docking_score>
-5.61995

> <r_i_glide_gscore>
-5.61995

> <r_i_glide_lipo>
-0.319965

> <r_i_glide_hbond>
-1.58147

> <r_i_glide_metal>
0

> <r_i_glide_eburp>
-2.21117

> <r_i_glide_evdw>
-14.5577

> <r_i_glide_ecoul>
-13.9594

> <r_i_glide_erotb>
1.30986

> <r_i_glide_esite>
-0.256649

> <r_i_glide_emodel>
-52.1008

> <r_i_glide_energy>
-28.5172

> <r_i_glide_einternal>
10.0002

> <i_i_glide_confnum>
11

> <i_i_glide_posenum>
867

$$$$
C00135
                    3D
 Structure written by MMmdl.
 20 20  0  0  1  0            999 V2000
    3.7403    2.2591    2.5177 C   0  0  0  0  0  0
    3.6560    0.8672    3.0987 C   0  0  0  0  0  0
    3.4984    2.6722    1.2233 C   0  0  0  0  0  0
    4.0948    3.3721    3.2879 N   0  0  0  0  0  0
    2.5628    0.7352    4.1852 C   0  0  1  0  0  0
    3.7017    4.0406    1.2088 N   0  0  0  0  0  0
    4.0487    4.3966    2.4463 C   0  0  0  0  0  0
    1.1659    1.1088    3.6651 C   0  0  0  0  0  0
    0.6976    0.4329    2.7213 O   0  0  0  0  0  0
    3.4724    0.1637    2.2852 H   0  0  0  0  0  0
    4.6318    0.6100    3.5119 H   0  0  0  0  0  0
    3.1985    2.1197    0.3451 H   0  0  0  0  0  0
    2.8211    1.3869    5.0221 H   0  0  0  0  0  0
    3.6003    4.6558    0.4142 H   0  0  0  0  0  0
    4.2693    5.4139    2.7347 H   0  0  0  0  0  0
    1.8073   -0.6883    5.4319 H   0  0  0  0  0  0
    2.2398   -1.2598    3.9485 H   0  0  0  0  0  0
    2.5036   -0.6411    4.7020 N   0  3  0  0  0  0
    3.4051   -0.9087    5.0687 H   0  0  0  0  0  0
    0.5777    2.0504    4.2393 O   0  5  0  0  0  0
  1  2  1  0  0  0
  1  3  2  0  0  0
  1  4  1  0  0  0
  2  5  1  0  0  0
  2 10  1  0  0  0
  2 11  1  0  0  0
  3  6  1  0  0  0
  3 12  1  0  0  0
  4  7  2  0  0  0
  5  8  1  0  0  0
  5 13  1  0  0  0
  5 18  1  0  0  0
  6  7  1  0  0  0
  6 14  1  0  0  0
  7 15  1  0  0  0
  8  9  2  0  0  0
  8 20  1  0  0  0
 16 18  1  0  0  0
 17 18  1  0  0  0
 18 19  1  0  0  0
M  CHG  2  18   1  20  -1
M  END
> <i_ionizer_Ion_state_n>
6

> <i_ionizer_Tot_Q>
0

> <s_ionizer_Ion_centers>
18_20

> <s_ionizer_Ion_types>
N5_OM

> <s_ionizer_Ion_ctrs_in>
9_10

> <r_ionizer_Ionization_penalty>
0.411459

> <r_ionizer_Ionization_penalty_charging>
0.000779521

> <r_ionizer_Ionization_penalty_neutral>
0.41068

> <s_st_Chirality_1>
5_S_18_8_2_13

> <i_mmod_Serial_Number-OPLS-2005>
98

> <i_i_glide_lignum>
96

> <r_i_docking_score>
-5.61451

> <r_i_glide_gscore>
-5.61451

> <r_i_glide_lipo>
-0.283801

> <r_i_glide_hbond>
-0.716322

> <r_i_glide_metal>
0

> <r_i_glide_eburp>
-2.5

> <r_i_glide_evdw>
-14.9037

> <r_i_glide_ecoul>
-6.67049

> <r_i_glide_erotb>
0.707256

> <r_i_glide_esite>
-0.962297

> <r_i_glide_emodel>
-42.5293

> <r_i_glide_energy>
-21.5742

> <r_i_glide_einternal>
0.648348

> <i_i_glide_confnum>
1

> <i_i_glide_posenum>
331

$$$$
C00189
                    3D
 Structure written by MMmdl.
 12 11  0  0  1  0            999 V2000
    4.4864    1.0589    4.4584 C   0  0  0  0  0  0
    5.7831    1.2375    5.2590 C   0  0  0  0  0  0
    5.7000    0.4998    6.4583 O   0  0  0  0  0  0
    3.6196    1.2442    5.0942 H   0  0  0  0  0  0
    4.4442    1.7781    3.6394 H   0  0  0  0  0  0
    6.6442    0.8894    4.6872 H   0  0  0  0  0  0
    5.9501    2.2882    5.4995 H   0  0  0  0  0  0
    3.5188   -0.3837    3.3806 H   0  0  0  0  0  0
    5.1618   -0.4740    3.2833 H   0  0  0  0  0  0
    5.5603   -0.4114    6.2471 H   0  0  0  0  0  0
    4.3811   -0.2997    3.9001 N   0  3  0  0  0  0
    4.3869   -0.9758    4.6505 H   0  0  0  0  0  0
  1  2  1  0  0  0
  1  4  1  0  0  0
  1  5  1  0  0  0
  1 11  1  0  0  0
  2  3  1  0  0  0
  2  6  1  0  0  0
  2  7  1  0  0  0
  3 10  1  0  0  0
  8 11  1  0  0  0
  9 11  1  0  0  0
 11 12  1  0  0  0
M  CHG  1  11   1
M  END
> <i_ionizer_Ion_state_n>
1

> <i_ionizer_Tot_Q>
1

> <s_ionizer_Ion_centers>
11

> <s_ionizer_Ion_types>
N5

> <s_ionizer_Ion_ctrs_in>
3

> <r_ionizer_Ionization_penalty>
0.000187331

> <r_ionizer_Ionization_penalty_charging>
0.000187331

> <r_ionizer_Ionization_penalty_neutral>
0

> <i_mmod_Serial_Number-OPLS-2005>
134

> <i_i_glide_lignum>
132

> <r_i_docking_score>
-5.61287

> <r_i_glide_gscore>
-5.61287

> <r_i_glide_lipo>
-0.207237

> <r_i_glide_hbond>
-1.4

> <r_i_glide_metal>
0

> <r_i_glide_eburp>
-2.5

> <r_i_glide_evdw>
-5.8266

> <r_i_glide_ecoul>
-10.5894

> <r_i_glide_erotb>
0

> <r_i_glide_esite>
0.0194337

> <r_i_glide_emodel>
-22.2933

> <r_i_glide_energy>
-16.416

> <r_i_glide_einternal>
3.52126

> <i_i_glide_confnum>
1

> <i_i_glide_posenum>
48

$$$$
C02291
                    3D
 Structure written by MMmdl.
 28 27  0  0  1  0            999 V2000
    2.9174    0.4667    3.6227 C   0  0  1  0  0  0
    3.0020    1.2150    2.2738 C   0  0  0  0  0  0
    1.7444   -0.5222    3.6292 C   0  0  0  0  0  0
    3.9127    2.4521    2.3336 C   0  0  0  0  0  0
    0.9007   -0.4152    4.5476 O   0  0  0  0  0  0
    3.0941    3.8791    3.1005 S   0  0  0  0  0  0
    1.9812    4.4105    1.7594 C   0  0  0  0  0  0
    0.7933    5.2668    2.2562 C   0  0  2  0  0  0
   -0.2995    4.4154    2.9380 C   0  0  0  0  0  0
    0.0580    3.7008    3.9001 O   0  0  0  0  0  0
    2.7752    1.1890    4.4288 H   0  0  0  0  0  0
    3.3475    0.5382    1.4905 H   0  0  0  0  0  0
    2.0029    1.5332    1.9741 H   0  0  0  0  0  0
    4.0692   -0.7424    4.7935 H   0  0  0  0  0  0
    4.2748   -0.9834    3.1776 H   0  0  0  0  0  0
    4.8331    2.2315    2.8751 H   0  0  0  0  0  0
    4.2022    2.7456    1.3245 H   0  0  0  0  0  0
    2.5553    4.9546    1.0095 H   0  0  0  0  0  0
    1.6016    3.5186    1.2602 H   0  0  0  0  0  0
    1.1661    5.9598    3.0115 H   0  0  0  0  0  0
   -0.5235    6.6475    1.5324 H   0  0  0  0  0  0
    0.9524    6.6913    0.7838 H   0  0  0  0  0  0
    4.1544   -0.2848    3.8973 N   0  3  0  0  0  0
    4.9453    0.3423    3.9051 H   0  0  0  0  0  0
    1.6997   -1.3583    2.7011 O   0  5  0  0  0  0
    0.2359    6.0918    1.1657 N   0  3  0  0  0  0
   -0.1205    5.4784    0.4467 H   0  0  0  0  0  0
   -1.4762    4.4988    2.5169 O   0  5  0  0  0  0
  1  2  1  0  0  0
  1  3  1  0  0  0
  1 11  1  0  0  0
  1 23  1  0  0  0
  2  4  1  0  0  0
  2 12  1  0  0  0
  2 13  1  0  0  0
  3  5  2  0  0  0
  3 25  1  0  0  0
  4  6  1  0  0  0
  4 16  1  0  0  0
  4 17  1  0  0  0
  6  7  1  0  0  0
  7  8  1  0  0  0
  7 18  1  0  0  0
  7 19  1  0  0  0
  8  9  1  0  0  0
  8 20  1  0  0  0
  8 26  1  0  0  0
  9 10  2  0  0  0
  9 28  1  0  0  0
 14 23  1  0  0  0
 15 23  1  0  0  0
 21 26  1  0  0  0
 22 26  1  0  0  0
 23 24  1  0  0  0
 26 27  1  0  0  0
M  CHG  4  23   1  25  -1  26   1  28  -1
M  END
> <i_ionizer_Ion_state_n>
15

> <i_ionizer_Tot_Q>
0

> <s_ionizer_Ion_centers>
23_25_26_28

> <s_ionizer_Ion_types>
N5_OM_N5_OM

> <s_ionizer_Ion_ctrs_in>
4_6_12_13

> <r_ionizer_Ionization_penalty>
0.00155904

> <r_ionizer_Ionization_penalty_charging>
0.00155904

> <r_ionizer_Ionization_penalty_neutral>
0

> <s_st_Chirality_1>
1_S_23_3_2_11

> <s_st_Chirality_2>
8_S_26_7_9_20

> <i_mmod_Serial_Number-OPLS-2005>
483

> <i_i_glide_lignum>
478

> <r_i_docking_score>
-5.60862

> <r_i_glide_gscore>
-5.60862

> <r_i_glide_lipo>
-0.303407

> <r_i_glide_hbond>
-2.12038

> <r_i_glide_metal>
0

> <r_i_glide_eburp>
-2.50406

> <r_i_glide_evdw>
-15.3604

> <r_i_glide_ecoul>
-10.9845

> <r_i_glide_erotb>
1.95454

> <r_i_glide_esite>
-0.308049

> <r_i_glide_emodel>
-64.678

> <r_i_glide_energy>
-26.3448

> <r_i_glide_einternal>
6.74852

> <i_i_glide_confnum>
135

> <i_i_glide_posenum>
133

$$$$
C00272
                    3D
 Structure written by MMmdl.
 32 33  0  0  1  0            999 V2000
    1.8421    5.3097    1.4956 C   0  0  0  0  0  0
    1.0676    4.4260    2.1619 C   0  0  0  0  0  0
    3.1441    5.0128    1.1479 N   0  0  0  0  0  0
    1.3905    6.5705    1.1006 N   0  0  0  0  0  0
    1.5680    3.1957    2.5493 N   0  0  0  0  0  0
   -0.3132    4.7874    2.4960 C   0  0  0  0  0  0
    3.6638    3.6541    1.2601 C   0  0  0  0  0  0
    0.1704    6.8995    1.3902 C   0  0  0  0  0  0
    2.9720    2.8163    2.3819 C   0  0  2  0  0  0
   -0.6809    6.0237    2.0798 N   0  0  0  0  0  0
   -1.0980    4.0579    3.1004 O   0  0  0  0  0  0
   -0.4310    8.1000    1.0749 N   0  0  0  0  0  0
    3.1267    1.2927    2.1435 C   0  0  2  0  0  0
    2.7566    0.4087    3.3609 C   0  0  1  0  0  0
    4.4616    1.0020    1.7729 O   0  0  0  0  0  0
    3.7641    0.5034    4.5176 C   0  0  0  0  0  0
    1.4676    0.7426    3.8397 O   0  0  0  0  0  0
    3.6748    5.6795    0.6063 H   0  0  0  0  0  0
    0.9797    2.5905    3.1040 H   0  0  0  0  0  0
    3.5014    3.1782    0.2923 H   0  0  0  0  0  0
    4.7427    3.6878    1.4134 H   0  0  0  0  0  0
    3.4544    3.0789    3.3245 H   0  0  0  0  0  0
   -1.6230    6.3192    2.2856 H   0  0  0  0  0  0
    0.0464    8.8390    0.5792 H   0  0  0  0  0  0
   -1.3837    8.3360    1.3105 H   0  0  0  0  0  0
    2.4892    1.0104    1.3044 H   0  0  0  0  0  0
    2.7225   -0.6339    3.0438 H   0  0  0  0  0  0
    4.5148    0.0744    1.5952 H   0  0  0  0  0  0
    3.4993   -0.1790    5.3257 H   0  0  0  0  0  0
    4.7679    0.2408    4.1826 H   0  0  0  0  0  0
    3.8067    1.5094    4.9364 H   0  0  0  0  0  0
    1.2476    0.1561    4.5477 H   0  0  0  0  0  0
  1  2  2  0  0  0
  1  3  1  0  0  0
  1  4  1  0  0  0
  2  5  1  0  0  0
  2  6  1  0  0  0
  3  7  1  0  0  0
  3 18  1  0  0  0
  4  8  2  0  0  0
  5  9  1  0  0  0
  5 19  1  0  0  0
  6 10  1  0  0  0
  6 11  2  0  0  0
  7  9  1  0  0  0
  7 20  1  0  0  0
  7 21  1  0  0  0
  8 12  1  0  0  0
  8 10  1  0  0  0
  9 13  1  0  0  0
  9 22  1  0  0  0
 10 23  1  0  0  0
 12 24  1  0  0  0
 12 25  1  0  0  0
 13 14  1  0  0  0
 13 15  1  0  0  0
 13 26  1  0  0  0
 14 16  1  0  0  0
 14 17  1  0  0  0
 14 27  1  0  0  0
 15 28  1  0  0  0
 16 29  1  0  0  0
 16 30  1  0  0  0
 16 31  1  0  0  0
 17 32  1  0  0  0
M  END
> <i_ionizer_Ion_state_n>
0

> <i_ionizer_Tot_Q>
0

> <s_ionizer_Ion_centers>


> <s_ionizer_Ion_types>


> <s_ionizer_Ion_ctrs_in>


> <r_ionizer_Ionization_penalty>
0

> <r_ionizer_Ionization_penalty_charging>
0

> <r_ionizer_Ionization_penalty_neutral>
0

> <s_st_Chirality_1>
9_R_5_13_7_22

> <s_st_Chirality_2>
13_R_15_14_9_26

> <s_st_Chirality_3>
14_R_17_13_16_27

> <i_mmod_Serial_Number-OPLS-2005>
175

> <i_i_glide_lignum>
173

> <r_i_docking_score>
-5.60545

> <r_i_glide_gscore>
-5.60545

> <r_i_glide_lipo>
-0.71744

> <r_i_glide_hbond>
-1.1463

> <r_i_glide_metal>
0

> <r_i_glide_eburp>
-1.96022

> <r_i_glide_evdw>
-27.8278

> <r_i_glide_ecoul>
-9.01068

> <r_i_glide_erotb>
0.68021

> <r_i_glide_esite>
0.665585

> <r_i_glide_emodel>
-56.6955

> <r_i_glide_energy>
-36.8384

> <r_i_glide_einternal>
1.09168

> <i_i_glide_confnum>
1

> <i_i_glide_posenum>
455

$$$$
C02170
                    3D
 Structure written by MMmdl.
 12 11  0  0  1  0            999 V2000
    1.2120    0.8467    3.7807 C   0  0  0  0  0  0
    0.9131    2.2620    3.2476 C   0  0  0  0  0  0
    0.9026   -0.1243    2.6239 C   0  0  0  0  0  0
    2.6675    0.7093    4.2818 C   0  0  0  0  0  0
    1.5233    2.6562    2.2270 O   0  0  0  0  0  0
    1.6671   -1.1002    2.4436 O   0  0  0  0  0  0
    0.5320    0.6338    4.6067 H   0  0  0  0  0  0
    2.8560   -0.2974    4.6557 H   0  0  0  0  0  0
    3.3986    0.9110    3.4975 H   0  0  0  0  0  0
    2.8635    1.4026    5.1000 H   0  0  0  0  0  0
    0.1008    2.9561    3.9000 O   0  5  0  0  0  0
   -0.1309    0.0998    1.9538 O   0  5  0  0  0  0
  1  2  1  0  0  0
  1  3  1  0  0  0
  1  4  1  0  0  0
  1  7  1  0  0  0
  2  5  2  0  0  0
  2 11  1  0  0  0
  3  6  2  0  0  0
  3 12  1  0  0  0
  4  8  1  0  0  0
  4  9  1  0  0  0
  4 10  1  0  0  0
M  CHG  2  11  -1  12  -1
M  END
> <i_ionizer_Ion_state_n>
3

> <i_ionizer_Tot_Q>
-2

> <s_ionizer_Ion_centers>
11_12

> <s_ionizer_Ion_types>
OM_OM

> <s_ionizer_Ion_ctrs_in>
5_7

> <r_ionizer_Ionization_penalty>
0.00118438

> <r_ionizer_Ionization_penalty_charging>
0.00118438

> <r_ionizer_Ionization_penalty_neutral>
0

> <i_mmod_Serial_Number-OPLS-2005>
476

> <i_i_glide_lignum>
471

> <r_i_docking_score>
-5.59907

> <r_i_glide_gscore>
-5.59907

> <r_i_glide_lipo>
-0.20234

> <r_i_glide_hbond>
-0.829783

> <r_i_glide_metal>
0

> <r_i_glide_eburp>
-2.5

> <r_i_glide_evdw>
-11.7767

> <r_i_glide_ecoul>
-4.68839

> <r_i_glide_erotb>
0

> <r_i_glide_esite>
-0.655973

> <r_i_glide_emodel>
-40.1272

> <r_i_glide_energy>
-16.4651

> <r_i_glide_einternal>
1.5482

> <i_i_glide_confnum>
1

> <i_i_glide_posenum>
892

$$$$
C00365
                    3D
 Structure written by MMmdl.
 31 32  0  0  1  0            999 V2000
    4.7590   -0.3528    0.3751 N   0  0  0  0  0  0
    3.3310   -0.3971    0.8730 C   0  0  2  0  0  0
    5.4341    0.8863    0.3723 C   0  0  0  0  0  0
    5.4124   -1.4839   -0.0981 C   0  0  0  0  0  0
    2.6504    0.7929    0.4962 O   0  0  0  0  0  0
    3.3033   -0.4207    2.3966 C   0  0  0  0  0  0
    6.7470    0.8952   -0.0985 N   0  0  0  0  0  0
    4.9109    1.9313    0.7564 O   0  0  0  0  0  0
    6.6865   -1.4628   -0.5558 C   0  0  0  0  0  0
    1.8990    1.3217    1.5793 C   0  0  1  0  0  0
    2.0300    0.3214    2.7377 C   0  0  1  0  0  0
    7.4456   -0.2170   -0.5744 C   0  0  0  0  0  0
    2.3691    2.7346    1.9657 C   0  0  0  0  0  0
    0.9236   -0.5524    2.7907 O   0  0  0  0  0  0
    8.6042   -0.0973   -0.9662 O   0  0  0  0  0  0
    1.2962    3.6585    1.8959 O   0  0  0  0  0  0
    0.3058    3.8096    3.3801 P   0  0  0  0  0  0
   -1.0976    4.0957    2.8022 O   0  0  0  0  0  0
    2.8868   -1.2950    0.4407 H   0  0  0  0  0  0
    4.8994   -2.4331   -0.1129 H   0  0  0  0  0  0
    3.2179   -1.4537    2.7372 H   0  0  0  0  0  0
    4.1903    0.0279    2.8453 H   0  0  0  0  0  0
    7.2316    1.7803   -0.0992 H   0  0  0  0  0  0
    7.1469   -2.3732   -0.9115 H   0  0  0  0  0  0
    0.8483    1.3492    1.2851 H   0  0  0  0  0  0
    2.1387    0.8488    3.6862 H   0  0  0  0  0  0
    2.8571    2.7362    2.9407 H   0  0  0  0  0  0
    3.1157    3.0768    1.2492 H   0  0  0  0  0  0
    1.0120   -1.0698    3.5874 H   0  0  0  0  0  0
    0.4998    2.4242    4.0357 O   0  5  0  0  0  0
    0.9949    4.9954    4.0893 O   0  5  0  0  0  0
  1  2  1  0  0  0
  1  3  1  0  0  0
  1  4  1  0  0  0
  2  5  1  0  0  0
  2  6  1  0  0  0
  2 19  1  0  0  0
  3  7  1  0  0  0
  3  8  2  0  0  0
  4  9  2  0  0  0
  4 20  1  0  0  0
  5 10  1  0  0  0
  6 11  1  0  0  0
  6 21  1  0  0  0
  6 22  1  0  0  0
  7 12  1  0  0  0
  7 23  1  0  0  0
  9 12  1  0  0  0
  9 24  1  0  0  0
 10 13  1  0  0  0
 10 11  1  0  0  0
 10 25  1  0  0  0
 11 14  1  0  0  0
 11 26  1  0  0  0
 12 15  2  0  0  0
 13 16  1  0  0  0
 13 27  1  0  0  0
 13 28  1  0  0  0
 14 29  1  0  0  0
 16 17  1  0  0  0
 17 18  2  0  0  0
 17 30  1  0  0  0
 17 31  1  0  0  0
M  CHG  2  30  -1  31  -1
M  END
> <i_ionizer_Ion_state_n>
3

> <i_ionizer_Tot_Q>
-2

> <s_ionizer_Ion_centers>
30_31

> <s_ionizer_Ion_types>
OM_OM

> <s_ionizer_Ion_ctrs_in>
18_19

> <r_ionizer_Ionization_penalty>
1.49178e-05

> <r_ionizer_Ionization_penalty_charging>
1.49178e-05

> <r_ionizer_Ionization_penalty_neutral>
0

> <s_st_Chirality_1>
2_R_5_1_6_19

> <s_st_Chirality_2>
10_R_5_11_13_25

> <s_st_Chirality_3>
11_S_14_10_6_26

> <i_mmod_Serial_Number-OPLS-2005>
212

> <i_i_glide_lignum>
210

> <r_i_docking_score>
-5.59652

> <r_i_glide_gscore>
-5.59652

> <r_i_glide_lipo>
-0.795143

> <r_i_glide_hbond>
-0.783004

> <r_i_glide_metal>
0

> <r_i_glide_eburp>
-1.46841

> <r_i_glide_evdw>
-30.5215

> <r_i_glide_ecoul>
0.835284

> <r_i_glide_erotb>
0.675473

> <r_i_glide_esite>
-0.867245

> <r_i_glide_emodel>
-66.0504

> <r_i_glide_energy>
-29.6862

> <r_i_glide_einternal>
10.6071

> <i_i_glide_confnum>
61

> <i_i_glide_posenum>
18

$$$$
C03227
                    3D
 Structure written by MMmdl.
 28 28  0  0  1  0            999 V2000
    1.4848    4.2315    2.3099 C   0  0  0  0  0  0
    0.4343    5.1132    1.9189 C   0  0  0  0  0  0
    1.2559    3.0429    3.1922 C   0  0  0  0  0  0
    2.8065    4.5218    1.8929 C   0  0  0  0  0  0
    0.7229    6.2415    1.1128 C   0  0  0  0  0  0
   -0.8461    4.9009    2.2777 N   0  0  0  0  0  0
    2.3464    1.9552    3.2035 C   0  0  0  0  0  0
    0.2559    2.9000    3.8973 O   0  0  0  0  0  0
    3.0834    5.6433    1.0910 C   0  0  0  0  0  0
    2.0428    6.5015    0.7000 C   0  0  0  0  0  0
   -0.2707    7.0972    0.7224 O   0  0  0  0  0  0
    1.9101    0.6107    3.8458 C   0  0  1  0  0  0
    1.2148   -0.3371    2.8547 C   0  0  0  0  0  0
    1.6997   -1.4803    2.7001 O   0  0  0  0  0  0
    3.6329    3.8933    2.1905 H   0  0  0  0  0  0
   -1.5398    5.6124    2.0957 H   0  0  0  0  0  0
   -1.0719    4.2146    2.9850 H   0  0  0  0  0  0
    2.6956    1.7792    2.1848 H   0  0  0  0  0  0
    3.1989    2.3562    3.7527 H   0  0  0  0  0  0
    4.0974    5.8482    0.7805 H   0  0  0  0  0  0
    2.2628    7.3623    0.0856 H   0  0  0  0  0  0
    0.0562    7.9138    0.3785 H   0  0  0  0  0  0
    1.2396    0.8147    4.6830 H   0  0  0  0  0  0
    2.7550   -0.9589    4.8299 H   0  0  0  0  0  0
    3.7033   -0.3320    3.6381 H   0  0  0  0  0  0
    3.0728   -0.1051    4.3939 N   0  3  0  0  0  0
    3.5438    0.4727    5.0746 H   0  0  0  0  0  0
    0.1781    0.0870    2.3001 O   0  5  0  0  0  0
  1  2  2  0  0  0
  1  3  1  0  0  0
  1  4  1  0  0  0
  2  5  1  0  0  0
  2  6  1  0  0  0
  3  7  1  0  0  0
  3  8  2  0  0  0
  4  9  2  0  0  0
  4 15  1  0  0  0
  5 10  2  0  0  0
  5 11  1  0  0  0
  6 16  1  0  0  0
  6 17  1  0  0  0
  7 12  1  0  0  0
  7 18  1  0  0  0
  7 19  1  0  0  0
  9 10  1  0  0  0
  9 20  1  0  0  0
 10 21  1  0  0  0
 11 22  1  0  0  0
 12 13  1  0  0  0
 12 23  1  0  0  0
 12 26  1  0  0  0
 13 14  2  0  0  0
 13 28  1  0  0  0
 24 26  1  0  0  0
 25 26  1  0  0  0
 26 27  1  0  0  0
M  CHG  2  26   1  28  -1
M  END
> <i_ionizer_Ion_state_n>
12

> <i_ionizer_Tot_Q>
0

> <s_ionizer_Ion_centers>
26_28

> <s_ionizer_Ion_types>
N5_OM

> <s_ionizer_Ion_ctrs_in>
14_15

> <r_ionizer_Ionization_penalty>
0.00324236

> <r_ionizer_Ionization_penalty_charging>
0.000779521

> <r_ionizer_Ionization_penalty_neutral>
0.00246284

> <s_st_Chirality_1>
12_S_26_13_7_23

> <i_mmod_Serial_Number-OPLS-2005>
529

> <i_i_glide_lignum>
523

> <r_i_docking_score>
-5.59485

> <r_i_glide_gscore>
-5.59485

> <r_i_glide_lipo>
-0.712771

> <r_i_glide_hbond>
-0.626551

> <r_i_glide_metal>
0

> <r_i_glide_eburp>
-2.08926

> <r_i_glide_evdw>
-24.2492

> <r_i_glide_ecoul>
-6.29349

> <r_i_glide_erotb>
1.1555

> <r_i_glide_esite>
-0.75249

> <r_i_glide_emodel>
-57.4598

> <r_i_glide_energy>
-30.5427

> <r_i_glide_einternal>
2.0842

> <i_i_glide_confnum>
6

> <i_i_glide_posenum>
76

$$$$
C00112
                    3D
 Structure written by MMmdl.
 37 38  0  0  1  0            999 V2000
    1.9408    4.4379    1.3708 C   0  0  2  0  0  0
    0.9456    5.5666    1.5240 N   0  0  0  0  0  0
    1.3867    3.2672    1.9014 O   0  0  0  0  0  0
    3.2226    4.7565    2.1539 C   0  0  1  0  0  0
    0.0818    5.5698    2.6437 C   0  0  0  0  0  0
    0.8319    6.5653    0.5664 C   0  0  0  0  0  0
    2.2107    2.7472    2.9437 C   0  0  1  0  0  0
    3.0131    3.9550    3.4279 C   0  0  1  0  0  0
    4.3741    4.3400    1.4438 O   0  0  0  0  0  0
   -0.8251    6.5918    2.7356 N   0  0  0  0  0  0
    0.1285    4.6886    3.5012 O   0  0  0  0  0  0
   -0.0730    7.5622    0.6678 C   0  0  0  0  0  0
    1.3330    2.1016    4.0234 C   0  0  0  0  0  0
    4.2268    3.5955    4.0618 O   0  0  0  0  0  0
   -0.9312    7.5449    1.8301 C   0  0  0  0  0  0
    0.5000    1.1172    3.4467 O   0  0  0  0  0  0
   -1.8544    8.5000    2.0052 N   0  0  0  0  0  0
    1.1676   -0.1813    2.5758 P   0  0  0  0  0  0
    2.4034    0.5129    1.6297 O   0  0  0  0  0  0
    1.7811   -1.1104    3.5524 O   0  0  0  0  0  0
    4.1522    0.5602    1.2512 P   0  0  0  0  0  0
    4.4131   -0.8600    0.7021 O   0  0  0  0  0  0
    2.0946    4.3103    0.2980 H   0  0  0  0  0  0
    3.3106    5.8249    2.3568 H   0  0  0  0  0  0
    1.4742    6.5666   -0.2997 H   0  0  0  0  0  0
    2.8846    2.0077    2.5080 H   0  0  0  0  0  0
    2.4145    4.5435    4.1205 H   0  0  0  0  0  0
    4.4046    4.8389    0.6405 H   0  0  0  0  0  0
   -0.1236    8.3167   -0.1046 H   0  0  0  0  0  0
    1.9489    1.6372    4.7919 H   0  0  0  0  0  0
    0.7205    2.8544    4.5199 H   0  0  0  0  0  0
    4.7152    3.0594    3.4519 H   0  0  0  0  0  0
   -1.9596    9.2343    1.3204 H   0  0  0  0  0  0
   -2.4487    8.4747    2.8207 H   0  0  0  0  0  0
    0.1193   -0.6863    1.6599 O   0  5  0  0  0  0
    4.2455    1.7023    0.2147 O   0  5  0  0  0  0
    4.7717    0.8582    2.6355 O   0  5  0  0  0  0
  1  2  1  0  0  0
  1  3  1  0  0  0
  1  4  1  0  0  0
  1 23  1  0  0  0
  2  5  1  0  0  0
  2  6  1  0  0  0
  3  7  1  0  0  0
  4  8  1  0  0  0
  4  9  1  0  0  0
  4 24  1  0  0  0
  5 10  1  0  0  0
  5 11  2  0  0  0
  6 12  2  0  0  0
  6 25  1  0  0  0
  7 13  1  0  0  0
  7  8  1  0  0  0
  7 26  1  0  0  0
  8 14  1  0  0  0
  8 27  1  0  0  0
  9 28  1  0  0  0
 10 15  2  0  0  0
 12 15  1  0  0  0
 12 29  1  0  0  0
 13 16  1  0  0  0
 13 30  1  0  0  0
 13 31  1  0  0  0
 14 32  1  0  0  0
 15 17  1  0  0  0
 16 18  1  0  0  0
 17 33  1  0  0  0
 17 34  1  0  0  0
 18 19  1  0  0  0
 18 20  2  0  0  0
 18 35  1  0  0  0
 19 21  1  0  0  0
 21 22  2  0  0  0
 21 36  1  0  0  0
 21 37  1  0  0  0
M  CHG  3  35  -1  36  -1  37  -1
M  END
> <i_ionizer_Ion_state_n>
7

> <i_ionizer_Tot_Q>
-3

> <s_ionizer_Ion_centers>
35_36_37

> <s_ionizer_Ion_types>
OM_OM_OM

> <s_ionizer_Ion_ctrs_in>
20_23_24

> <r_ionizer_Ionization_penalty>
2.23767e-05

> <r_ionizer_Ionization_penalty_charging>
2.23767e-05

> <r_ionizer_Ionization_penalty_neutral>
0

> <s_st_Chirality_1>
1_R_3_2_4_23

> <s_st_Chirality_2>
4_R_9_1_8_24

> <s_st_Chirality_3>
7_R_3_8_13_26

> <s_st_Chirality_4>
8_R_14_4_7_27

> <i_mmod_Serial_Number-OPLS-2005>
80

> <i_i_glide_lignum>
79

> <r_i_docking_score>
-5.58671

> <r_i_glide_gscore>
-5.58671

> <r_i_glide_lipo>
-0.630839

> <r_i_glide_hbond>
-1.07769

> <r_i_glide_metal>
0

> <r_i_glide_eburp>
-0.756386

> <r_i_glide_evdw>
-33.1431

> <r_i_glide_ecoul>
-8.84536

> <r_i_glide_erotb>
0.699505

> <r_i_glide_esite>
-0.285314

> <r_i_glide_emodel>
-83.7729

> <r_i_glide_energy>
-41.9884

> <r_i_glide_einternal>
6.17328

> <i_i_glide_confnum>
94

> <i_i_glide_posenum>
621

$$$$
C00054
                    3D
 Structure written by MMmdl.
 38 40  0  0  1  0            999 V2000
    1.4168    5.1748    2.3109 N   0  0  0  0  0  0
    2.8985    5.0320    2.1167 C   0  0  1  0  0  0
    0.6187    6.0700    1.6308 C   0  0  0  0  0  0
    0.5386    4.4472    3.0915 C   0  0  0  0  0  0
    3.5988    4.4695    3.3534 C   0  0  1  0  0  0
    3.1129    4.1269    1.0820 O   0  0  0  0  0  0
   -0.7105    5.8205    2.0672 C   0  0  0  0  0  0
    0.9957    7.0157    0.7198 N   0  0  0  0  0  0
   -0.7173    4.7964    3.0029 N   0  0  0  0  0  0
    3.6290    2.9700    3.0895 C   0  0  1  0  0  0
    4.9137    4.9736    3.4555 O   0  0  0  0  0  0
    3.4315    2.8237    1.5676 C   0  0  1  0  0  0
   -1.7137    6.6345    1.4846 C   0  0  0  0  0  0
   -0.0542    7.6998    0.2574 C   0  0  0  0  0  0
    4.8425    2.4389    3.6135 O   0  0  0  0  0  0
    2.3197    1.8307    1.1826 C   0  0  0  0  0  0
   -1.3457    7.5710    0.5796 N   0  0  0  0  0  0
   -3.0134    6.5222    1.7893 N   0  0  0  0  0  0
    4.7160    0.9414    4.5917 P   0  0  0  0  0  0
    2.5457    0.5683    1.7902 O   0  0  0  0  0  0
    5.4524    1.3246    5.8949 O   0  0  0  0  0  0
    1.1392   -0.1356    2.6514 P   0  0  0  0  0  0
    0.9004    0.8982    3.7752 O   0  0  0  0  0  0
    3.2340    6.0341    1.8477 H   0  0  0  0  0  0
    0.8419    3.6390    3.7375 H   0  0  0  0  0  0
    3.0623    4.7257    4.2676 H   0  0  0  0  0  0
    2.7903    2.5163    3.6142 H   0  0  0  0  0  0
    5.2156    5.0818    2.5622 H   0  0  0  0  0  0
    4.3694    2.5271    1.0983 H   0  0  0  0  0  0
    0.1715    8.4597   -0.4757 H   0  0  0  0  0  0
    1.3557    2.1981    1.5338 H   0  0  0  0  0  0
    2.2409    1.7411    0.0994 H   0  0  0  0  0  0
   -3.6893    7.1192    1.3370 H   0  0  0  0  0  0
   -3.3102    5.8137    2.4448 H   0  0  0  0  0  0
    3.1876    0.7536    4.6986 O   0  5  0  0  0  0
    5.4511   -0.0697    3.6846 O   0  5  0  0  0  0
    0.0580   -0.1943    1.5504 O   0  5  0  0  0  0
    1.7046   -1.4992    3.1076 O   0  5  0  0  0  0
  1  2  1  0  0  0
  1  3  1  0  0  0
  1  4  1  0  0  0
  2  5  1  0  0  0
  2  6  1  0  0  0
  2 24  1  0  0  0
  3  7  2  0  0  0
  3  8  1  0  0  0
  4  9  2  0  0  0
  4 25  1  0  0  0
  5 10  1  0  0  0
  5 11  1  0  0  0
  5 26  1  0  0  0
  6 12  1  0  0  0
  7 13  1  0  0  0
  7  9  1  0  0  0
  8 14  2  0  0  0
 10 15  1  0  0  0
 10 12  1  0  0  0
 10 27  1  0  0  0
 11 28  1  0  0  0
 12 16  1  0  0  0
 12 29  1  0  0  0
 13 17  2  0  0  0
 13 18  1  0  0  0
 14 17  1  0  0  0
 14 30  1  0  0  0
 15 19  1  0  0  0
 16 20  1  0  0  0
 16 31  1  0  0  0
 16 32  1  0  0  0
 18 33  1  0  0  0
 18 34  1  0  0  0
 19 21  2  0  0  0
 19 35  1  0  0  0
 19 36  1  0  0  0
 20 22  1  0  0  0
 22 23  2  0  0  0
 22 37  1  0  0  0
 22 38  1  0  0  0
M  CHG  4  35  -1  36  -1  37  -1  38  -1
M  END
> <i_ionizer_Ion_state_n>
30

> <i_ionizer_Tot_Q>
-4

> <s_ionizer_Ion_centers>
35_36_37_38

> <s_ionizer_Ion_types>
OM_OM_OM_OM

> <s_ionizer_Ion_ctrs_in>
21_22_25_26

> <r_ionizer_Ionization_penalty>
4.85714e-05

> <r_ionizer_Ionization_penalty_charging>
2.98356e-05

> <r_ionizer_Ionization_penalty_neutral>
1.87357e-05

> <s_st_Chirality_1>
2_R_6_1_5_24

> <s_st_Chirality_2>
5_R_11_2_10_26

> <s_st_Chirality_3>
10_R_15_5_12_27

> <s_st_Chirality_4>
12_R_6_10_16_29

> <i_mmod_Serial_Number-OPLS-2005>
38

> <i_i_glide_lignum>
37

> <r_i_docking_score>
-5.58422

> <r_i_glide_gscore>
-5.58422

> <r_i_glide_lipo>
-0.504422

> <r_i_glide_hbond>
-0.995358

> <r_i_glide_metal>
0

> <r_i_glide_eburp>
-0.582013

> <r_i_glide_evdw>
-40.3304

> <r_i_glide_ecoul>
-4.24131

> <r_i_glide_erotb>
0.505886

> <r_i_glide_esite>
-0.357744

> <r_i_glide_emodel>
-79.8414

> <r_i_glide_energy>
-44.5717

> <r_i_glide_einternal>
10.048

> <i_i_glide_confnum>
30

> <i_i_glide_posenum>
123

$$$$
C00094
                    3D
 Structure written by MMmdl.
  6  5  0  0  1  0            999 V2000
    5.3024    1.0274    4.9458 S   0  0  0  0  0  0
    5.7037    0.4996    6.5195 O   0  0  0  0  0  0
    3.8904    0.0995    4.6985 O   0  0  0  0  0  0
    4.8999    2.5007    5.0230 O   0  0  0  0  0  0
    5.5407   -0.4293    6.5763 H   0  0  0  0  0  0
    4.0190   -0.7532    5.0846 H   0  0  0  0  0  0
  1  2  1  0  0  0
  1  3  1  0  0  0
  1  4  2  0  0  0
  2  5  1  0  0  0
  3  6  1  0  0  0
M  END
> <i_ionizer_Ion_state_n>
0

> <i_ionizer_Tot_Q>
0

> <s_ionizer_Ion_centers>


> <s_ionizer_Ion_types>


> <s_ionizer_Ion_ctrs_in>


> <r_ionizer_Ionization_penalty>
0

> <r_ionizer_Ionization_penalty_charging>
0

> <r_ionizer_Ionization_penalty_neutral>
0

> <i_mmod_Serial_Number-OPLS-2005>
66

> <i_i_glide_lignum>
65

> <r_i_docking_score>
-5.58335

> <r_i_glide_gscore>
-5.58335

> <r_i_glide_lipo>
0

> <r_i_glide_hbond>
-1.35

> <r_i_glide_metal>
0

> <r_i_glide_eburp>
-2.5

> <r_i_glide_evdw>
-10.3877

> <r_i_glide_ecoul>
-7.72722

> <r_i_glide_erotb>
0

> <r_i_glide_esite>
-0.12962

> <r_i_glide_emodel>
-22.4222

> <r_i_glide_energy>
-18.1149

> <r_i_glide_einternal>
0.0961967

> <i_i_glide_confnum>
1

> <i_i_glide_posenum>
21

$$$$
C00129
                    3D
 Structure written by MMmdl.
 23 22  0  0  1  0            999 V2000
    0.9480    0.5492    2.1926 P   0  0  0  0  0  0
    0.0022    1.9587    2.3101 O   0  0  0  0  0  0
    1.2360    0.1238    3.8184 O   0  0  0  0  0  0
    0.1098   -0.5142    1.5910 O   0  0  0  0  0  0
   -0.0331    3.6806    2.7898 P   0  0  0  0  0  0
    2.3075    0.6693    4.5672 C   0  0  0  0  0  0
    1.0788    4.2954    1.9095 O   0  0  0  0  0  0
    3.6402    0.6119    3.7949 C   0  0  0  0  0  0
    4.8038    1.3679    4.4276 C   0  0  0  0  0  0
    4.7562    2.8702    4.2280 C   0  0  0  0  0  0
    5.8052    0.7877    5.1143 C   0  0  0  0  0  0
    2.0599    1.6974    4.8340 H   0  0  0  0  0  0
    2.3804    0.1018    5.4950 H   0  0  0  0  0  0
    3.9354   -0.4312    3.6779 H   0  0  0  0  0  0
    3.4997    1.0083    2.7891 H   0  0  0  0  0  0
    5.6059    3.3656    4.6988 H   0  0  0  0  0  0
    4.7697    3.1109    3.1648 H   0  0  0  0  0  0
    3.8428    3.2795    4.6604 H   0  0  0  0  0  0
    6.6013    1.3815    5.5389 H   0  0  0  0  0  0
    5.8575   -0.2790    5.2705 H   0  0  0  0  0  0
    2.2467    0.8880    1.5659 O   0  5  0  0  0  0
   -1.4791    4.0996    2.4401 O   0  5  0  0  0  0
    0.2866    3.5958    4.3002 O   0  5  0  0  0  0
  1  2  1  0  0  0
  1  3  1  0  0  0
  1  4  2  0  0  0
  1 21  1  0  0  0
  2  5  1  0  0  0
  3  6  1  0  0  0
  5  7  2  0  0  0
  5 22  1  0  0  0
  5 23  1  0  0  0
  6  8  1  0  0  0
  6 12  1  0  0  0
  6 13  1  0  0  0
  8  9  1  0  0  0
  8 14  1  0  0  0
  8 15  1  0  0  0
  9 10  1  0  0  0
  9 11  2  0  0  0
 10 16  1  0  0  0
 10 17  1  0  0  0
 10 18  1  0  0  0
 11 19  1  0  0  0
 11 20  1  0  0  0
M  CHG  3  21  -1  22  -1  23  -1
M  END
> <i_ionizer_Ion_state_n>
7

> <i_ionizer_Tot_Q>
-3

> <s_ionizer_Ion_centers>
21_22_23

> <s_ionizer_Ion_types>
OM_OM_OM

> <s_ionizer_Ion_ctrs_in>
4_8_9

> <r_ionizer_Ionization_penalty>
2.23767e-05

> <r_ionizer_Ionization_penalty_charging>
2.23767e-05

> <r_ionizer_Ionization_penalty_neutral>
0

> <i_mmod_Serial_Number-OPLS-2005>
93

> <i_i_glide_lignum>
91

> <r_i_docking_score>
-5.57611

> <r_i_glide_gscore>
-5.57611

> <r_i_glide_lipo>
-0.454122

> <r_i_glide_hbond>
-1.65077

> <r_i_glide_metal>
0

> <r_i_glide_eburp>
-2.34643

> <r_i_glide_evdw>
-13.6053

> <r_i_glide_ecoul>
-10.9725

> <r_i_glide_erotb>
1.67885

> <r_i_glide_esite>
-0.617963

> <r_i_glide_emodel>
-63.191

> <r_i_glide_energy>
-24.5778

> <r_i_glide_einternal>
5.29507

> <i_i_glide_confnum>
42

> <i_i_glide_posenum>
723

$$$$
C07271
                    3D
 Structure written by MMmdl.
 27 28  0  0  1  0            999 V2000
    1.5308    0.3940    2.4498 C   0  0  2  0  0  0
    2.1689   -0.6341    3.3991 C   0  0  2  0  0  0
    0.8162   -0.7074    3.0632 O   0  0  0  0  0  0
    2.7050    0.5294    1.4900 C   0  0  0  0  0  0
    0.8656    1.7218    2.7947 C   0  0  0  0  0  0
    2.9398    0.1307    4.4338 C   0  0  0  0  0  0
    3.8985    1.1937    2.2566 C   0  0  0  0  0  0
    4.2235    0.5832    3.6744 C   0  0  1  0  0  0
    5.1587    1.4263    4.5496 C   0  0  0  0  0  0
    5.9667    0.6481    5.5743 C   0  0  0  0  0  0
    5.3021    2.7612    4.4488 C   0  0  0  0  0  0
    2.7047   -1.4992    3.0079 H   0  0  0  0  0  0
    2.9849   -0.4384    1.0699 H   0  0  0  0  0  0
    2.4115    1.1516    0.6439 H   0  0  0  0  0  0
    1.5754    2.4408    3.2008 H   0  0  0  0  0  0
    0.4128    2.1534    1.9020 H   0  0  0  0  0  0
    0.0784    1.5733    3.5344 H   0  0  0  0  0  0
    2.3708    0.9707    4.8313 H   0  0  0  0  0  0
    3.1708   -0.5337    5.2663 H   0  0  0  0  0  0
    4.7920    1.1763    1.6317 H   0  0  0  0  0  0
    3.6423    2.2459    2.3685 H   0  0  0  0  0  0
    4.7892   -0.3277    3.4708 H   0  0  0  0  0  0
    6.7006    1.2839    6.0707 H   0  0  0  0  0  0
    5.3184    0.2307    6.3445 H   0  0  0  0  0  0
    6.5042   -0.1695    5.0935 H   0  0  0  0  0  0
    5.9831    3.2908    5.0989 H   0  0  0  0  0  0
    4.7624    3.3593    3.7320 H   0  0  0  0  0  0
  1  2  1  0  0  0
  1  3  1  0  0  0
  1  4  1  0  0  0
  1  5  1  0  0  0
  2  6  1  0  0  0
  2  3  1  0  0  0
  2 12  1  0  0  0
  4  7  1  0  0  0
  4 13  1  0  0  0
  4 14  1  0  0  0
  5 15  1  0  0  0
  5 16  1  0  0  0
  5 17  1  0  0  0
  6  8  1  0  0  0
  6 18  1  0  0  0
  6 19  1  0  0  0
  7  8  1  0  0  0
  7 20  1  0  0  0
  7 21  1  0  0  0
  8  9  1  0  0  0
  8 22  1  0  0  0
  9 10  1  0  0  0
  9 11  2  0  0  0
 10 23  1  0  0  0
 10 24  1  0  0  0
 10 25  1  0  0  0
 11 26  1  0  0  0
 11 27  1  0  0  0
M  END
> <i_ionizer_Ion_state_n>
0

> <i_ionizer_Tot_Q>
0

> <s_ionizer_Ion_centers>


> <s_ionizer_Ion_types>


> <s_ionizer_Ion_ctrs_in>


> <r_ionizer_Ionization_penalty>
0

> <r_ionizer_Ionization_penalty_charging>
0

> <r_ionizer_Ionization_penalty_neutral>
0

> <s_st_Chirality_1>
1_R_3_2_4_5

> <s_st_Chirality_2>
2_R_3_1_6_12

> <s_st_Chirality_3>
8_R_9_6_7_22

> <i_mmod_Serial_Number-OPLS-2005>
901

> <i_i_glide_lignum>
889

> <r_i_docking_score>
-5.55567

> <r_i_glide_gscore>
-5.55567

> <r_i_glide_lipo>
-1.02453

> <r_i_glide_hbond>
0

> <r_i_glide_metal>
0

> <r_i_glide_eburp>
-2.5

> <r_i_glide_evdw>
-22.4252

> <r_i_glide_ecoul>
-1.2187

> <r_i_glide_erotb>
0.729159

> <r_i_glide_esite>
-0.844417

> <r_i_glide_emodel>
-29.1491

> <r_i_glide_energy>
-23.6439

> <r_i_glide_einternal>
0.501634

> <i_i_glide_confnum>
1

> <i_i_glide_posenum>
827

$$$$
C09824
                    3D
 Structure written by MMmdl.
100103  0  0  1  0            999 V2000
  -10.7320   10.5070   12.6304 N   0  0  0  0  0  0
  -11.4434   10.0395   11.4020 C   0  0  1  0  0  0
  -10.3975    9.7274   13.7158 C   0  0  0  0  0  0
  -10.2663   11.7687   12.9388 C   0  0  0  0  0  0
  -12.7373   10.8289   11.1985 C   0  0  1  0  0  0
  -10.6128   10.3124   10.3109 O   0  0  0  0  0  0
   -9.7384   10.5963   14.6276 C   0  0  0  0  0  0
  -10.6351    8.3967   13.9090 N   0  0  0  0  0  0
   -9.6746   11.8784   14.0990 N   0  0  0  0  0  0
  -12.7838   10.9417    9.6842 C   0  0  1  0  0  0
  -13.8908   10.1905   11.7051 O   0  0  0  0  0  0
  -11.3049   11.0701    9.3171 C   0  0  1  0  0  0
   -9.2998   10.0016   15.8372 C   0  0  0  0  0  0
  -10.1674    7.9800   15.0890 C   0  0  0  0  0  0
  -13.2399    9.7421    9.0713 O   0  0  0  0  0  0
  -10.7763   12.5128    9.3196 C   0  0  0  0  0  0
   -9.5333    8.6831   16.0336 N   0  0  0  0  0  0
   -8.6634   10.6842   16.7981 N   0  0  0  0  0  0
  -14.7504    9.8701    8.1152 P   0  0  0  0  0  0
   -9.3667   12.5154    9.4310 O   0  0  0  0  0  0
  -15.6893   10.6496    9.0640 O   0  0  0  0  0  0
   -8.4610   13.9327    9.1641 P   0  0  0  0  0  0
   -7.9900   13.8553    7.5306 O   0  0  0  0  0  0
   -9.3618   15.0957    9.3376 O   0  0  0  0  0  0
   -8.3073   12.8347    6.2080 P   0  0  0  0  0  0
   -7.0733   11.6654    6.3249 O   0  0  0  0  0  0
   -9.6034   12.1520    6.4224 O   0  0  0  0  0  0
   -5.9325   11.6859    5.4828 C   0  0  0  0  0  0
   -5.0793   10.4005    5.6384 C   0  0  0  0  0  0
   -4.1188   10.2850    4.4040 C   0  0  2  0  0  0
   -4.2819   10.4647    6.9606 C   0  0  0  0  0  0
   -6.0407    9.1911    5.7119 C   0  0  0  0  0  0
   -3.4248    8.9166    4.2394 C   0  0  0  0  0  0
   -3.1324   11.3083    4.4042 O   0  0  0  0  0  0
   -3.0194    8.5754    3.0048 N   0  0  0  0  0  0
   -3.2756    8.1814    5.2161 O   0  0  0  0  0  0
   -2.4516    7.2879    2.6246 C   0  0  0  0  0  0
   -0.9839    7.1652    3.0795 C   0  0  0  0  0  0
   -0.3780    5.7791    2.8377 C   0  0  0  0  0  0
    0.9001    5.7619    2.4344 N   0  0  0  0  0  0
   -1.0409    4.7554    3.0083 O   0  0  0  0  0  0
    1.7037    4.5541    2.3050 C   0  0  0  0  0  0
    2.5545    4.6023    1.0310 C   0  0  0  0  0  0
    3.9478    3.4403    1.1240 S   0  0  0  0  0  0
    3.0325    1.8833    0.9938 C   0  0  0  0  0  0
    2.5855    1.2732    2.3346 C   0  0  0  0  0  0
    2.7829    1.3440   -0.0846 O   0  0  0  0  0  0
    1.8539   -0.0879    2.1884 C   0  0  1  0  0  0
    3.7742    1.1796    3.3284 C   0  0  1  0  0  0
    1.4276   -0.6420    3.5622 C   0  0  0  0  0  0
    0.6754    0.0609    1.4178 O   0  0  0  0  0  0
    3.3232    0.6116    4.6870 C   0  0  0  0  0  0
    4.8168    0.3606    2.8266 O   0  0  0  0  0  0
    2.6127   -0.7438    4.5329 C   0  0  0  0  0  0
  -11.5881    8.9637   11.5078 H   0  0  0  0  0  0
  -10.3781   12.6144   12.2768 H   0  0  0  0  0  0
  -12.6406   11.8235   11.6364 H   0  0  0  0  0  0
  -13.3580   11.8053    9.3611 H   0  0  0  0  0  0
  -13.7911   10.0964   12.6495 H   0  0  0  0  0  0
  -11.1020   10.6273    8.3410 H   0  0  0  0  0  0
  -10.3230    6.9341   15.3092 H   0  0  0  0  0  0
  -11.0902   13.0572    8.4312 H   0  0  0  0  0  0
  -11.1826   13.0435   10.1811 H   0  0  0  0  0  0
   -8.3730   10.2129   17.6419 H   0  0  0  0  0  0
   -8.4823   11.6697   16.6724 H   0  0  0  0  0  0
   -6.2399   11.8136    4.4439 H   0  0  0  0  0  0
   -5.3553   12.5749    5.7288 H   0  0  0  0  0  0
   -4.7112   10.4366    3.5004 H   0  0  0  0  0  0
   -3.6721    9.5747    7.1136 H   0  0  0  0  0  0
   -3.6178   11.3267    6.9832 H   0  0  0  0  0  0
   -4.9442   10.5492    7.8226 H   0  0  0  0  0  0
   -5.5142    8.2528    5.8850 H   0  0  0  0  0  0
   -6.7490    9.2969    6.5335 H   0  0  0  0  0  0
   -6.6180    9.0854    4.7928 H   0  0  0  0  0  0
   -2.6970   11.3487    3.5620 H   0  0  0  0  0  0
   -3.1298    9.2712    2.2792 H   0  0  0  0  0  0
   -3.0567    6.5079    3.0884 H   0  0  0  0  0  0
   -2.5369    7.1493    1.5451 H   0  0  0  0  0  0
   -0.3710    7.9017    2.5583 H   0  0  0  0  0  0
   -0.9107    7.3922    4.1440 H   0  0  0  0  0  0
    1.3413    6.6404    2.2036 H   0  0  0  0  0  0
    2.3469    4.4523    3.1806 H   0  0  0  0  0  0
    1.0469    3.6830    2.2831 H   0  0  0  0  0  0
    1.9419    4.3536    0.1633 H   0  0  0  0  0  0
    2.9427    5.6104    0.8793 H   0  0  0  0  0  0
    1.8676    1.9753    2.7619 H   0  0  0  0  0  0
    2.5032   -0.8114    1.6925 H   0  0  0  0  0  0
    4.1941    2.1739    3.4880 H   0  0  0  0  0  0
    0.6660    0.0052    4.0001 H   0  0  0  0  0  0
    0.9663   -1.6232    3.4443 H   0  0  0  0  0  0
    0.1506    0.7479    1.7997 H   0  0  0  0  0  0
    4.1759    0.5128    5.3600 H   0  0  0  0  0  0
    2.6428    1.3190    5.1629 H   0  0  0  0  0  0
    5.4064    0.1529    3.5355 H   0  0  0  0  0  0
    2.2649   -1.0918    5.5059 H   0  0  0  0  0  0
    3.3173   -1.4946    4.1730 H   0  0  0  0  0  0
  -14.2601   10.6393    6.8695 O   0  5  0  0  0  0
  -15.0955    8.3819    7.8907 O   0  5  0  0  0  0
   -7.2351   13.8450    9.9900 O   0  5  0  0  0  0
   -8.0949   13.6181    4.9689 O   0  5  0  0  0  0
  1  2  1  0  0  0
  1  3  1  0  0  0
  1  4  1  0  0  0
  2  5  1  0  0  0
  2  6  1  0  0  0
  2 55  1  0  0  0
  3  7  2  0  0  0
  3  8  1  0  0  0
  4  9  2  0  0  0
  4 56  1  0  0  0
  5 10  1  0  0  0
  5 11  1  0  0  0
  5 57  1  0  0  0
  6 12  1  0  0  0
  7 13  1  0  0  0
  7  9  1  0  0  0
  8 14  2  0  0  0
 10 15  1  0  0  0
 10 12  1  0  0  0
 10 58  1  0  0  0
 11 59  1  0  0  0
 12 16  1  0  0  0
 12 60  1  0  0  0
 13 17  2  0  0  0
 13 18  1  0  0  0
 14 17  1  0  0  0
 14 61  1  0  0  0
 15 19  1  0  0  0
 16 20  1  0  0  0
 16 62  1  0  0  0
 16 63  1  0  0  0
 18 64  1  0  0  0
 18 65  1  0  0  0
 19 21  2  0  0  0
 19 97  1  0  0  0
 19 98  1  0  0  0
 20 22  1  0  0  0
 22 23  1  0  0  0
 22 24  2  0  0  0
 22 99  1  0  0  0
 23 25  1  0  0  0
 25 26  1  0  0  0
 25 27  2  0  0  0
 25100  1  0  0  0
 26 28  1  0  0  0
 28 29  1  0  0  0
 28 66  1  0  0  0
 28 67  1  0  0  0
 29 30  1  0  0  0
 29 31  1  0  0  0
 29 32  1  0  0  0
 30 33  1  0  0  0
 30 34  1  0  0  0
 30 68  1  0  0  0
 31 69  1  0  0  0
 31 70  1  0  0  0
 31 71  1  0  0  0
 32 72  1  0  0  0
 32 73  1  0  0  0
 32 74  1  0  0  0
 33 35  1  0  0  0
 33 36  2  0  0  0
 34 75  1  0  0  0
 35 37  1  0  0  0
 35 76  1  0  0  0
 37 38  1  0  0  0
 37 77  1  0  0  0
 37 78  1  0  0  0
 38 39  1  0  0  0
 38 79  1  0  0  0
 38 80  1  0  0  0
 39 40  1  0  0  0
 39 41  2  0  0  0
 40 42  1  0  0  0
 40 81  1  0  0  0
 42 43  1  0  0  0
 42 82  1  0  0  0
 42 83  1  0  0  0
 43 44  1  0  0  0
 43 84  1  0  0  0
 43 85  1  0  0  0
 44 45  1  0  0  0
 45 46  1  0  0  0
 45 47  2  0  0  0
 46 48  1  0  0  0
 46 49  1  0  0  0
 46 86  1  0  0  0
 48 50  1  0  0  0
 48 51  1  0  0  0
 48 87  1  0  0  0
 49 52  1  0  0  0
 49 53  1  0  0  0
 49 88  1  0  0  0
 50 54  1  0  0  0
 50 89  1  0  0  0
 50 90  1  0  0  0
 51 91  1  0  0  0
 52 54  1  0  0  0
 52 92  1  0  0  0
 52 93  1  0  0  0
 53 94  1  0  0  0
 54 95  1  0  0  0
 54 96  1  0  0  0
M  CHG  4  97  -1  98  -1  99  -1 100  -1
M  END
> <i_ionizer_Ion_state_n>
30

> <i_ionizer_Tot_Q>
-4

> <s_ionizer_Ion_centers>
97_98_99_100

> <s_ionizer_Ion_types>
OM_OM_OM_OM

> <s_ionizer_Ion_ctrs_in>
21_22_26_30

> <r_ionizer_Ionization_penalty>
4.85714e-05

> <r_ionizer_Ionization_penalty_charging>
2.98356e-05

> <r_ionizer_Ionization_penalty_neutral>
1.87357e-05

> <s_st_Chirality_1>
2_R_6_1_5_55

> <s_st_Chirality_2>
5_R_11_2_10_57

> <s_st_Chirality_3>
10_R_15_5_12_58

> <s_st_Chirality_4>
12_R_6_10_16_60

> <s_st_Chirality_5>
30_R_34_33_29_68

> <s_st_Chirality_6>
48_R_51_46_50_87

> <s_st_Chirality_7>
49_R_53_46_52_88

> <i_mmod_Serial_Number-OPLS-2005>
919

> <i_i_glide_lignum>
907

> <r_i_docking_score>
-5.55274

> <r_i_glide_gscore>
-5.55274

> <r_i_glide_lipo>
-1.20521

> <r_i_glide_hbond>
-1.62263

> <r_i_glide_metal>
0

> <r_i_glide_eburp>
0

> <r_i_glide_evdw>
-33.3471

> <r_i_glide_ecoul>
-8.51318

> <r_i_glide_erotb>
0.426906

> <r_i_glide_esite>
0.367284

> <r_i_glide_emodel>
-87.1223

> <r_i_glide_energy>
-41.8603

> <r_i_glide_einternal>
12.4502

> <i_i_glide_confnum>
975

> <i_i_glide_posenum>
909

$$$$
C00900
                    3D
 Structure written by MMmdl.
 16 15  0  0  1  0            999 V2000
    1.7038    1.4893    3.2551 C   0  0  1  0  0  0
    1.2957    0.6747    2.0105 C   0  0  0  0  0  0
    0.8317    2.7662    3.2849 C   0  0  0  0  0  0
    1.5340    0.6641    4.5480 C   0  0  0  0  0  0
    3.0719    1.8559    3.1704 O   0  0  0  0  0  0
    2.2982    0.5424    0.8644 C   0  0  0  0  0  0
    0.1974    0.1232    1.9327 O   0  0  0  0  0  0
    0.0998    2.9594    4.2825 O   0  0  0  0  0  0
    1.8144    1.2481    5.4252 H   0  0  0  0  0  0
    0.5012    0.3408    4.6838 H   0  0  0  0  0  0
    2.1589   -0.2290    4.5305 H   0  0  0  0  0  0
    3.5929    1.0687    3.1809 H   0  0  0  0  0  0
    3.0702   -0.1836    1.1184 H   0  0  0  0  0  0
    1.7962    0.2103   -0.0443 H   0  0  0  0  0  0
    2.7752    1.5015    0.6619 H   0  0  0  0  0  0
    0.9007    3.5398    2.3020 O   0  5  0  0  0  0
  1  2  1  0  0  0
  1  3  1  0  0  0
  1  4  1  0  0  0
  1  5  1  0  0  0
  2  6  1  0  0  0
  2  7  2  0  0  0
  3  8  2  0  0  0
  3 16  1  0  0  0
  4  9  1  0  0  0
  4 10  1  0  0  0
  4 11  1  0  0  0
  5 12  1  0  0  0
  6 13  1  0  0  0
  6 14  1  0  0  0
  6 15  1  0  0  0
M  CHG  1  16  -1
M  END
> <i_ionizer_Ion_state_n>
1

> <i_ionizer_Tot_Q>
-1

> <s_ionizer_Ion_centers>
16

> <s_ionizer_Ion_types>
OM

> <s_ionizer_Ion_ctrs_in>
8

> <r_ionizer_Ionization_penalty>
0.00059219

> <r_ionizer_Ionization_penalty_charging>
0.00059219

> <r_ionizer_Ionization_penalty_neutral>
0

> <s_st_Chirality_1>
1_R_5_3_2_4

> <i_mmod_Serial_Number-OPLS-2005>
355

> <i_i_glide_lignum>
352

> <r_i_docking_score>
-5.55246

> <r_i_glide_gscore>
-5.55246

> <r_i_glide_lipo>
-0.287575

> <r_i_glide_hbond>
-0.7

> <r_i_glide_metal>
0

> <r_i_glide_eburp>
-2.5

> <r_i_glide_evdw>
-14.66

> <r_i_glide_ecoul>
-4.40861

> <r_i_glide_erotb>
0

> <r_i_glide_esite>
-0.451219

> <r_i_glide_emodel>
-35.7731

> <r_i_glide_energy>
-19.0686

> <r_i_glide_einternal>
0.951844

> <i_i_glide_confnum>
1

> <i_i_glide_posenum>
526

$$$$
C00246
                    3D
 Structure written by MMmdl.
 13 12  0  0  1  0            999 V2000
    0.5283    2.2519    2.4605 C   0  0  0  0  0  0
   -0.2996    3.3047    3.2091 C   0  0  0  0  0  0
    1.6402    1.6234    3.3239 C   0  0  0  0  0  0
   -1.3725    3.7007    2.7008 O   0  0  0  0  0  0
    1.0945    0.5919    4.3178 C   0  0  0  0  0  0
    0.9638    2.7224    1.5784 H   0  0  0  0  0  0
   -0.1483    1.4752    2.1026 H   0  0  0  0  0  0
    2.3802    1.1414    2.6834 H   0  0  0  0  0  0
    2.1674    2.4029    3.8757 H   0  0  0  0  0  0
    1.9001    0.1638    4.9146 H   0  0  0  0  0  0
    0.3780    1.0463    5.0026 H   0  0  0  0  0  0
    0.5926   -0.2259    3.8001 H   0  0  0  0  0  0
    0.1678    3.7010    4.2988 O   0  5  0  0  0  0
  1  2  1  0  0  0
  1  3  1  0  0  0
  1  6  1  0  0  0
  1  7  1  0  0  0
  2  4  2  0  0  0
  2 13  1  0  0  0
  3  5  1  0  0  0
  3  8  1  0  0  0
  3  9  1  0  0  0
  5 10  1  0  0  0
  5 11  1  0  0  0
  5 12  1  0  0  0
M  CHG  1  13  -1
M  END
> <i_ionizer_Ion_state_n>
1

> <i_ionizer_Tot_Q>
-1

> <s_ionizer_Ion_centers>
13

> <s_ionizer_Ion_types>
OM

> <s_ionizer_Ion_ctrs_in>
4

> <r_ionizer_Ionization_penalty>
0.00059219

> <r_ionizer_Ionization_penalty_charging>
0.00059219

> <r_ionizer_Ionization_penalty_neutral>
0

> <i_mmod_Serial_Number-OPLS-2005>
161

> <i_i_glide_lignum>
159

> <r_i_docking_score>
-5.55223

> <r_i_glide_gscore>
-5.55223

> <r_i_glide_lipo>
-0.262137

> <r_i_glide_hbond>
-1.36077

> <r_i_glide_metal>
0

> <r_i_glide_eburp>
-2.9

> <r_i_glide_evdw>
-3.86897

> <r_i_glide_ecoul>
-6.70517

> <r_i_glide_erotb>
0

> <r_i_glide_esite>
-0.0492862

> <r_i_glide_emodel>
-31.0636

> <r_i_glide_energy>
-10.5741

> <r_i_glide_einternal>
0.670613

> <i_i_glide_confnum>
1

> <i_i_glide_posenum>
46

$$$$
C00360
                    3D
 Structure written by MMmdl.
 34 36  0  0  1  0            999 V2000
    2.0235    4.7378    2.0885 N   0  0  0  0  0  0
    1.2486    5.6451    1.3996 C   0  0  0  0  0  0
    3.5088    4.5893    1.9579 C   0  0  2  0  0  0
    1.1294    4.0191    2.8565 C   0  0  0  0  0  0
   -0.0881    5.4197    1.8260 C   0  0  0  0  0  0
    1.6530    6.5801    0.4905 N   0  0  0  0  0  0
    3.7759    3.4000    1.2753 O   0  0  0  0  0  0
    4.1422    4.4357    3.3381 C   0  0  0  0  0  0
   -0.1212    4.3830    2.7485 N   0  0  0  0  0  0
   -1.0696    6.2602    1.2438 C   0  0  0  0  0  0
    0.6215    7.2936    0.0296 C   0  0  0  0  0  0
    4.1649    2.3676    2.1885 C   0  0  1  0  0  0
    3.9561    2.9542    3.5918 C   0  0  1  0  0  0
   -0.6743    7.1912    0.3445 N   0  0  0  0  0  0
   -2.3732    6.1762    1.5401 N   0  0  0  0  0  0
    3.3989    1.0690    1.8776 C   0  0  0  0  0  0
    4.9098    2.4932    4.5237 O   0  0  0  0  0  0
    1.9996    1.2961    1.8606 O   0  0  0  0  0  0
    1.0046    0.0915    2.7361 P   0  0  0  0  0  0
    1.8722   -1.1818    2.6317 O   0  0  0  0  0  0
    3.8292    5.4722    1.4036 H   0  0  0  0  0  0
    1.4270    3.2082    3.5041 H   0  0  0  0  0  0
    5.1996    4.6928    3.2590 H   0  0  0  0  0  0
    3.6766    5.0777    4.0864 H   0  0  0  0  0  0
    0.8676    8.0564   -0.6945 H   0  0  0  0  0  0
    5.2298    2.2127    2.0065 H   0  0  0  0  0  0
    2.9471    2.7576    3.9571 H   0  0  0  0  0  0
   -3.0310    6.8003    1.0969 H   0  0  0  0  0  0
   -2.6895    5.4902    2.2104 H   0  0  0  0  0  0
    3.7557    0.6073    0.9566 H   0  0  0  0  0  0
    3.5781    0.3441    2.6714 H   0  0  0  0  0  0
    5.7718    2.7007    4.1703 H   0  0  0  0  0  0
    0.8976    0.7258    4.1407 O   0  5  0  0  0  0
   -0.2897    0.0932    1.8943 O   0  5  0  0  0  0
  1  2  1  0  0  0
  1  3  1  0  0  0
  1  4  1  0  0  0
  2  5  2  0  0  0
  2  6  1  0  0  0
  3  7  1  0  0  0
  3  8  1  0  0  0
  3 21  1  0  0  0
  4  9  2  0  0  0
  4 22  1  0  0  0
  5 10  1  0  0  0
  5  9  1  0  0  0
  6 11  2  0  0  0
  7 12  1  0  0  0
  8 13  1  0  0  0
  8 23  1  0  0  0
  8 24  1  0  0  0
 10 14  2  0  0  0
 10 15  1  0  0  0
 11 14  1  0  0  0
 11 25  1  0  0  0
 12 16  1  0  0  0
 12 13  1  0  0  0
 12 26  1  0  0  0
 13 17  1  0  0  0
 13 27  1  0  0  0
 15 28  1  0  0  0
 15 29  1  0  0  0
 16 18  1  0  0  0
 16 30  1  0  0  0
 16 31  1  0  0  0
 17 32  1  0  0  0
 18 19  1  0  0  0
 19 20  2  0  0  0
 19 33  1  0  0  0
 19 34  1  0  0  0
M  CHG  2  33  -1  34  -1
M  END
> <i_ionizer_Ion_state_n>
6

> <i_ionizer_Tot_Q>
-2

> <s_ionizer_Ion_centers>
33_34

> <s_ionizer_Ion_types>
OM_OM

> <s_ionizer_Ion_ctrs_in>
20_21

> <r_ionizer_Ionization_penalty>
3.36536e-05

> <r_ionizer_Ionization_penalty_charging>
1.49178e-05

> <r_ionizer_Ionization_penalty_neutral>
1.87357e-05

> <s_st_Chirality_1>
3_R_7_1_8_21

> <s_st_Chirality_2>
12_R_7_13_16_26

> <s_st_Chirality_3>
13_S_17_12_8_27

> <i_mmod_Serial_Number-OPLS-2005>
207

> <i_i_glide_lignum>
205

> <r_i_docking_score>
-5.55113

> <r_i_glide_gscore>
-5.55113

> <r_i_glide_lipo>
-0.521356

> <r_i_glide_hbond>
-0.303836

> <r_i_glide_metal>
0

> <r_i_glide_eburp>
-1.29386

> <r_i_glide_evdw>
-36.7557

> <r_i_glide_ecoul>
-3.29516

> <r_i_glide_erotb>
0.594476

> <r_i_glide_esite>
-0.756588

> <r_i_glide_emodel>
-67.7375

> <r_i_glide_energy>
-40.0508

> <r_i_glide_einternal>
5.28655

> <i_i_glide_confnum>
4

> <i_i_glide_posenum>
55

$$$$
C00236
                    3D
 Structure written by MMmdl.
 19 18  0  0  1  0            999 V2000
    5.7314    0.0620    0.3404 P   0  0  0  0  0  0
    5.1933    0.4581    2.0081 O   0  0  0  0  0  0
    5.2993    1.3306   -0.4282 O   0  0  0  0  0  0
    4.0735    0.0188    2.6322 C   0  0  0  0  0  0
    3.6651    0.7168    3.9468 C   0  0  1  0  0  0
    3.3516   -0.8468    2.1353 O   0  0  0  0  0  0
    2.2823    0.2607    4.4694 C   0  0  0  0  0  0
    4.6324    0.5075    4.9564 O   0  0  0  0  0  0
    1.3564    1.3236    4.6801 O   0  0  0  0  0  0
    0.8930    2.3185    3.2583 P   0  0  0  0  0  0
   -0.0252    3.3879    3.8907 O   0  0  0  0  0  0
    3.6457    1.7950    3.8113 H   0  0  0  0  0  0
    1.8631   -0.5003    3.8118 H   0  0  0  0  0  0
    2.3998   -0.2303    5.4333 H   0  0  0  0  0  0
    4.6324   -0.4247    5.1641 H   0  0  0  0  0  0
    7.2555   -0.1255    0.5007 O   0  5  0  0  0  0
    4.9161   -1.2116    0.0221 O   0  5  0  0  0  0
    2.2568    2.8213    2.7340 O   0  5  0  0  0  0
    0.1838    1.2731    2.3694 O   0  5  0  0  0  0
  1  2  1  0  0  0
  1  3  2  0  0  0
  1 16  1  0  0  0
  1 17  1  0  0  0
  2  4  1  0  0  0
  4  5  1  0  0  0
  4  6  2  0  0  0
  5  7  1  0  0  0
  5  8  1  0  0  0
  5 12  1  0  0  0
  7  9  1  0  0  0
  7 13  1  0  0  0
  7 14  1  0  0  0
  8 15  1  0  0  0
  9 10  1  0  0  0
 10 11  2  0  0  0
 10 18  1  0  0  0
 10 19  1  0  0  0
M  CHG  4  16  -1  17  -1  18  -1  19  -1
M  END
> <i_ionizer_Ion_state_n>
15

> <i_ionizer_Tot_Q>
-4

> <s_ionizer_Ion_centers>
16_17_18_19

> <s_ionizer_Ion_types>
OM_OM_OM_OM

> <s_ionizer_Ion_ctrs_in>
3_4_13_14

> <r_ionizer_Ionization_penalty>
2.98356e-05

> <r_ionizer_Ionization_penalty_charging>
2.98356e-05

> <r_ionizer_Ionization_penalty_neutral>
0

> <s_st_Chirality_1>
5_R_8_4_7_12

> <i_mmod_Serial_Number-OPLS-2005>
156

> <i_i_glide_lignum>
154

> <r_i_docking_score>
-5.54802

> <r_i_glide_gscore>
-5.54802

> <r_i_glide_lipo>
-0.206552

> <r_i_glide_hbond>
-1.41348

> <r_i_glide_metal>
0

> <r_i_glide_eburp>
-1.80298

> <r_i_glide_evdw>
-20.1867

> <r_i_glide_ecoul>
-11.0451

> <r_i_glide_erotb>
1.18083

> <r_i_glide_esite>
-0.586404

> <r_i_glide_emodel>
-66.646

> <r_i_glide_energy>
-31.2318

> <r_i_glide_einternal>
8.22684

> <i_i_glide_confnum>
19

> <i_i_glide_posenum>
969

$$$$
C01674
                    3D
 Structure written by MMmdl.
 57 58  0  0  1  0            999 V2000
    2.6044    2.5994    2.9886 C   0  0  2  0  0  0
    3.7933    2.3570    3.9471 C   0  0  1  0  0  0
    2.1600    3.9078    3.1714 O   0  0  0  0  0  0
    1.5940    1.6972    3.3174 O   0  0  0  0  0  0
    4.2614    0.8951    3.7838 C   0  0  2  0  0  0
    4.8934    3.2566    3.5992 N   0  0  0  0  0  0
    1.2833    4.4412    2.1753 C   0  0  2  0  0  0
    1.9005    0.3395    3.0292 C   0  0  1  0  0  0
    3.0851   -0.0897    3.9226 C   0  0  1  0  0  0
    5.1817    0.5986    4.8168 O   0  0  0  0  0  0
    4.9793    4.5488    3.9467 C   0  0  0  0  0  0
    2.1745    5.4075    1.3693 C   0  0  2  0  0  0
    0.0706    5.1702    2.8154 C   0  0  1  0  0  0
    0.6064   -0.4542    3.2892 C   0  0  0  0  0  0
    3.5350   -1.3653    3.5077 O   0  0  0  0  0  0
    3.9578    5.0398    4.9658 C   0  0  0  0  0  0
    5.8252    5.3224    3.5004 O   0  0  0  0  0  0
    1.3466    6.1703    0.5057 O   0  0  0  0  0  0
    3.1828    4.6617    0.4771 C   0  0  0  0  0  0
   -0.5746    6.2637    1.9193 C   0  0  2  0  0  0
   -0.9382    4.1949    3.0151 O   0  0  0  0  0  0
   -0.2973   -0.3351    2.2092 O   0  0  0  0  0  0
    0.5207    7.0597    1.1767 C   0  0  2  0  0  0
    2.5022    3.8610   -0.4664 O   0  0  0  0  0  0
   -1.3094    7.2141    2.7565 N   0  0  0  0  0  0
   -0.0722    7.9502    0.2598 O   0  0  0  0  0  0
   -2.6259    7.4594    2.6900 C   0  0  0  0  0  0
   -3.1589    8.5427    3.6204 C   0  0  0  0  0  0
   -3.3909    6.8595    1.9363 O   0  0  0  0  0  0
    2.9099    2.4610    1.9487 H   0  0  0  0  0  0
    3.4430    2.5237    4.9681 H   0  0  0  0  0  0
    4.7454    0.7642    2.8140 H   0  0  0  0  0  0
    5.6595    2.8567    3.0779 H   0  0  0  0  0  0
    0.9396    3.6564    1.4981 H   0  0  0  0  0  0
    2.1654    0.2588    1.9727 H   0  0  0  0  0  0
    2.7543   -0.1391    4.9615 H   0  0  0  0  0  0
    5.1823   -0.3388    4.9434 H   0  0  0  0  0  0
    2.7123    6.0636    2.0576 H   0  0  0  0  0  0
    0.3733    5.6059    3.7691 H   0  0  0  0  0  0
    0.8229   -1.5067    3.4749 H   0  0  0  0  0  0
    0.1114   -0.0683    4.1812 H   0  0  0  0  0  0
    4.0955   -1.7122    4.1881 H   0  0  0  0  0  0
    2.9449    4.9063    4.5851 H   0  0  0  0  0  0
    4.0546    4.4850    5.8993 H   0  0  0  0  0  0
    4.1049    6.0986    5.1815 H   0  0  0  0  0  0
    3.7934    5.3678   -0.0829 H   0  0  0  0  0  0
    3.8652    4.0533    1.0714 H   0  0  0  0  0  0
   -1.2217    5.8138    1.1624 H   0  0  0  0  0  0
   -1.1410    3.8014    2.1777 H   0  0  0  0  0  0
   -0.4317    0.5834    2.0292 H   0  0  0  0  0  0
    1.1191    7.6678    1.8586 H   0  0  0  0  0  0
    3.0810    3.6946   -1.1946 H   0  0  0  0  0  0
   -0.7637    7.7531    3.4132 H   0  0  0  0  0  0
    0.2630    8.8156    0.4380 H   0  0  0  0  0  0
   -4.2318    8.6794    3.4806 H   0  0  0  0  0  0
   -2.9822    8.2715    4.6615 H   0  0  0  0  0  0
   -2.6650    9.4940    3.4206 H   0  0  0  0  0  0
  1  2  1  0  0  0
  1  3  1  0  0  0
  1  4  1  0  0  0
  1 30  1  0  0  0
  2  5  1  0  0  0
  2  6  1  0  0  0
  2 31  1  0  0  0
  3  7  1  0  0  0
  4  8  1  0  0  0
  5  9  1  0  0  0
  5 10  1  0  0  0
  5 32  1  0  0  0
  6 11  1  0  0  0
  6 33  1  0  0  0
  7 12  1  0  0  0
  7 13  1  0  0  0
  7 34  1  0  0  0
  8 14  1  0  0  0
  8  9  1  0  0  0
  8 35  1  0  0  0
  9 15  1  0  0  0
  9 36  1  0  0  0
 10 37  1  0  0  0
 11 16  1  0  0  0
 11 17  2  0  0  0
 12 18  1  0  0  0
 12 19  1  0  0  0
 12 38  1  0  0  0
 13 20  1  0  0  0
 13 21  1  0  0  0
 13 39  1  0  0  0
 14 22  1  0  0  0
 14 40  1  0  0  0
 14 41  1  0  0  0
 15 42  1  0  0  0
 16 43  1  0  0  0
 16 44  1  0  0  0
 16 45  1  0  0  0
 18 23  1  0  0  0
 19 24  1  0  0  0
 19 46  1  0  0  0
 19 47  1  0  0  0
 20 25  1  0  0  0
 20 23  1  0  0  0
 20 48  1  0  0  0
 21 49  1  0  0  0
 22 50  1  0  0  0
 23 26  1  0  0  0
 23 51  1  0  0  0
 24 52  1  0  0  0
 25 27  1  0  0  0
 25 53  1  0  0  0
 26 54  1  0  0  0
 27 28  1  0  0  0
 27 29  2  0  0  0
 28 55  1  0  0  0
 28 56  1  0  0  0
 28 57  1  0  0  0
M  END
> <i_ionizer_Ion_state_n>
0

> <i_ionizer_Tot_Q>
0

> <s_ionizer_Ion_centers>


> <s_ionizer_Ion_types>


> <s_ionizer_Ion_ctrs_in>


> <r_ionizer_Ionization_penalty>
0

> <r_ionizer_Ionization_penalty_charging>
0

> <r_ionizer_Ionization_penalty_neutral>
0

> <s_st_Chirality_1>
1_S_3_4_2_30

> <s_st_Chirality_2>
2_R_6_1_5_31

> <s_st_Chirality_3>
5_R_10_9_2_32

> <s_st_Chirality_4>
7_S_3_12_13_34

> <s_st_Chirality_5>
8_R_4_9_14_35

> <s_st_Chirality_6>
9_S_15_8_5_36

> <s_st_Chirality_7>
12_R_18_7_19_38

> <s_st_Chirality_8>
13_R_21_7_20_39

> <s_st_Chirality_9>
20_R_25_23_13_48

> <s_st_Chirality_10>
23_R_18_26_20_51

> <i_mmod_Serial_Number-OPLS-2005>
452

> <i_i_glide_lignum>
448

> <r_i_docking_score>
-5.53631

> <r_i_glide_gscore>
-5.53631

> <r_i_glide_lipo>
-1.11323

> <r_i_glide_hbond>
-2.64928

> <r_i_glide_metal>
0

> <r_i_glide_eburp>
0.0766203

> <r_i_glide_evdw>
-3.65871

> <r_i_glide_ecoul>
-19.945

> <r_i_glide_erotb>
0.754841

> <r_i_glide_esite>
-0.318063

> <r_i_glide_emodel>
-39.6333

> <r_i_glide_energy>
-23.6037

> <r_i_glide_einternal>
15.6591

> <i_i_glide_confnum>
73

> <i_i_glide_posenum>
613

$$$$
C05399
                    3D
 Structure written by MMmdl.
 47 47  0  0  1  0            999 V2000
    2.4547    3.1765    2.8803 C   0  0  2  0  0  0
    3.8457    2.5485    3.1318 C   0  0  1  0  0  0
    1.5192    2.1586    2.5066 O   0  0  0  0  0  0
    2.4605    4.2712    1.8009 C   0  0  0  0  0  0
    3.7355    1.3606    4.1046 C   0  0  1  0  0  0
    4.4324    2.1478    1.9058 O   0  0  0  0  0  0
    1.3311    1.1193    3.4234 C   0  0  1  0  0  0
    1.1847    4.8900    1.7606 O   0  0  0  0  0  0
    2.6670    0.3662    3.6155 C   0  0  2  0  0  0
    4.9958    0.7251    4.2148 O   0  0  0  0  0  0
    0.8200    1.5705    4.6606 O   0  0  0  0  0  0
    1.1850    6.1038    1.0259 C   0  0  0  0  0  0
    2.5229   -0.7044    4.5309 O   0  0  0  0  0  0
   -0.1433    6.2326    0.2576 C   0  0  1  0  0  0
   -1.3678    6.4184    1.1912 C   0  0  2  0  0  0
   -0.0435    7.3224   -0.6393 O   0  0  0  0  0  0
   -1.5444    7.8504    1.7748 C   0  0  1  0  0  0
   -1.3879    5.4335    2.2102 O   0  0  0  0  0  0
   -2.2327    7.8948    3.1641 C   0  0  1  0  0  0
   -0.2859    8.4983    1.8526 O   0  0  0  0  0  0
   -2.4368    9.3264    3.6987 C   0  0  0  0  0  0
   -3.5198    7.3186    3.0607 O   0  0  0  0  0  0
   -1.5033   10.2022    3.0996 O   0  0  0  0  0  0
    2.1231    3.6366    3.8125 H   0  0  0  0  0  0
    4.5051    3.3021    3.5643 H   0  0  0  0  0  0
    3.2116    5.0246    2.0435 H   0  0  0  0  0  0
    2.7176    3.8514    0.8270 H   0  0  0  0  0  0
    3.4666    1.7323    5.0945 H   0  0  0  0  0  0
    3.8770    1.4819    1.5275 H   0  0  0  0  0  0
    0.5785    0.4533    3.0001 H   0  0  0  0  0  0
    2.9572   -0.0509    2.6499 H   0  0  0  0  0  0
    4.8802   -0.0570    4.7342 H   0  0  0  0  0  0
    1.5475    1.9015    5.1661 H   0  0  0  0  0  0
    1.2843    6.9269    1.7352 H   0  0  0  0  0  0
    2.0386    6.1599    0.3478 H   0  0  0  0  0  0
    3.3803   -1.0533    4.7231 H   0  0  0  0  0  0
   -0.3020    5.3238   -0.3244 H   0  0  0  0  0  0
   -2.2462    6.2197    0.5764 H   0  0  0  0  0  0
   -0.0164    8.1161   -0.1226 H   0  0  0  0  0  0
   -2.1522    8.4251    1.0742 H   0  0  0  0  0  0
   -0.5862    5.4993    2.7057 H   0  0  0  0  0  0
   -1.6474    7.3177    3.8817 H   0  0  0  0  0  0
   -0.3634    9.3613    1.4755 H   0  0  0  0  0  0
   -3.4327    9.6958    3.4539 H   0  0  0  0  0  0
   -2.3383    9.3636    4.7846 H   0  0  0  0  0  0
   -4.0473    7.8874    2.5189 H   0  0  0  0  0  0
   -1.8195   10.4401    2.2410 H   0  0  0  0  0  0
  1  2  1  0  0  0
  1  3  1  0  0  0
  1  4  1  0  0  0
  1 24  1  0  0  0
  2  5  1  0  0  0
  2  6  1  0  0  0
  2 25  1  0  0  0
  3  7  1  0  0  0
  4  8  1  0  0  0
  4 26  1  0  0  0
  4 27  1  0  0  0
  5  9  1  0  0  0
  5 10  1  0  0  0
  5 28  1  0  0  0
  6 29  1  0  0  0
  7 11  1  0  0  0
  7  9  1  0  0  0
  7 30  1  0  0  0
  8 12  1  0  0  0
  9 13  1  0  0  0
  9 31  1  0  0  0
 10 32  1  0  0  0
 11 33  1  0  0  0
 12 14  1  0  0  0
 12 34  1  0  0  0
 12 35  1  0  0  0
 13 36  1  0  0  0
 14 15  1  0  0  0
 14 16  1  0  0  0
 14 37  1  0  0  0
 15 17  1  0  0  0
 15 18  1  0  0  0
 15 38  1  0  0  0
 16 39  1  0  0  0
 17 19  1  0  0  0
 17 20  1  0  0  0
 17 40  1  0  0  0
 18 41  1  0  0  0
 19 21  1  0  0  0
 19 22  1  0  0  0
 19 42  1  0  0  0
 20 43  1  0  0  0
 21 23  1  0  0  0
 21 44  1  0  0  0
 21 45  1  0  0  0
 22 46  1  0  0  0
 23 47  1  0  0  0
M  END
> <i_ionizer_Ion_state_n>
0

> <i_ionizer_Tot_Q>
0

> <s_ionizer_Ion_centers>


> <s_ionizer_Ion_types>


> <s_ionizer_Ion_ctrs_in>


> <r_ionizer_Ionization_penalty>
0

> <r_ionizer_Ionization_penalty_charging>
0

> <r_ionizer_Ionization_penalty_neutral>
0

> <s_st_Chirality_1>
1_R_3_2_4_24

> <s_st_Chirality_2>
2_S_6_5_1_25

> <s_st_Chirality_3>
5_S_10_9_2_28

> <s_st_Chirality_4>
7_S_3_11_9_30

> <s_st_Chirality_5>
9_R_13_7_5_31

> <s_st_Chirality_6>
14_S_16_15_12_37

> <s_st_Chirality_7>
15_R_18_17_14_38

> <s_st_Chirality_8>
17_R_20_15_19_40

> <s_st_Chirality_9>
19_R_22_17_21_42

> <i_mmod_Serial_Number-OPLS-2005>
683

> <i_i_glide_lignum>
676

> <r_i_docking_score>
-5.5296

> <r_i_glide_gscore>
-5.5296

> <r_i_glide_lipo>
-0.90369

> <r_i_glide_hbond>
-1.40189

> <r_i_glide_metal>
0

> <r_i_glide_eburp>
-1.17941

> <r_i_glide_evdw>
-21.3576

> <r_i_glide_ecoul>
-18.5624

> <r_i_glide_erotb>
1.46418

> <r_i_glide_esite>
0.0560586

> <r_i_glide_emodel>
-66.4158

> <r_i_glide_energy>
-39.92

> <r_i_glide_einternal>
14.3239

> <i_i_glide_confnum>
71

> <i_i_glide_posenum>
570

$$$$
C04640
                    3D
 Structure written by MMmdl.
 35 35  0  0  1  0            999 V2000
    3.0828    1.6997    1.9990 C   0  0  2  0  0  0
    4.3834    1.2118    2.2422 O   0  0  0  0  0  0
    2.3654    0.6054    1.2177 C   0  0  1  0  0  0
    3.1781    2.8846    1.1370 N   0  0  0  0  0  0
    4.4846   -0.1812    1.9701 C   0  0  1  0  0  0
    3.0568   -0.6617    1.6697 C   0  0  1  0  0  0
    0.9874    0.5739    1.5351 O   0  0  0  0  0  0
    3.1007    4.1646    1.5512 C   0  0  0  0  0  0
    5.4523   -0.4945    0.8172 C   0  0  0  0  0  0
    2.4309   -1.2656    2.7838 O   0  0  0  0  0  0
    2.8020    4.4454    2.9893 C   0  0  0  0  0  0
    6.7993   -0.3022    1.2155 O   0  0  0  0  0  0
    1.3707    4.5950    3.1949 N   0  0  0  0  0  0
    7.9854   -0.0872   -0.1101 P   0  0  0  0  0  0
    0.5035    3.5825    3.0987 C   0  0  0  0  0  0
    7.5068   -1.1352   -1.1386 O   0  0  0  0  0  0
   -0.6937    3.7016    3.3442 O   0  0  0  0  0  0
    2.5650    1.9661    2.9207 H   0  0  0  0  0  0
    2.4730    0.7524    0.1415 H   0  0  0  0  0  0
    3.4063    2.7465    0.1624 H   0  0  0  0  0  0
    4.8186   -0.6728    2.8853 H   0  0  0  0  0  0
    3.0788   -1.3783    0.8472 H   0  0  0  0  0  0
    0.9163    0.4456    2.4704 H   0  0  0  0  0  0
    5.2704   -1.4924    0.4176 H   0  0  0  0  0  0
    5.2725    0.1997   -0.0036 H   0  0  0  0  0  0
    2.5886   -0.6937    3.5316 H   0  0  0  0  0  0
    3.1833    3.6290    3.6054 H   0  0  0  0  0  0
    3.3191    5.3535    3.3055 H   0  0  0  0  0  0
    3.2182    6.1468    1.0485 H   0  0  0  0  0  0
    1.0165    5.5138    3.4188 H   0  0  0  0  0  0
    0.9933    2.6495    2.7780 H   0  0  0  0  0  0
    3.2793    5.1972    0.7082 N   0  3  0  0  0  0
    3.4430    5.0306   -0.2749 H   0  0  0  0  0  0
    7.7707    1.3924   -0.4999 O   0  5  0  0  0  0
    9.3116   -0.4110    0.6104 O   0  5  0  0  0  0
  1  2  1  0  0  0
  1  3  1  0  0  0
  1  4  1  0  0  0
  1 18  1  0  0  0
  2  5  1  0  0  0
  3  6  1  0  0  0
  3  7  1  0  0  0
  3 19  1  0  0  0
  4  8  1  0  0  0
  4 20  1  0  0  0
  5  9  1  0  0  0
  5  6  1  0  0  0
  5 21  1  0  0  0
  6 10  1  0  0  0
  6 22  1  0  0  0
  7 23  1  0  0  0
  8 11  1  0  0  0
  8 32  2  0  0  0
  9 12  1  0  0  0
  9 24  1  0  0  0
  9 25  1  0  0  0
 10 26  1  0  0  0
 11 13  1  0  0  0
 11 27  1  0  0  0
 11 28  1  0  0  0
 12 14  1  0  0  0
 13 15  1  0  0  0
 13 30  1  0  0  0
 14 16  2  0  0  0
 14 34  1  0  0  0
 14 35  1  0  0  0
 15 17  2  0  0  0
 15 31  1  0  0  0
 29 32  1  0  0  0
 32 33  1  0  0  0
M  CHG  3  32   1  34  -1  35  -1
M  END
> <i_ionizer_Ion_state_n>
7

> <i_ionizer_Tot_Q>
-1

> <s_ionizer_Ion_centers>
32_34_35

> <s_ionizer_Ion_types>
N4_OM_OM

> <s_ionizer_Ion_ctrs_in>
12_17_18

> <r_ionizer_Ionization_penalty>
2.08426e-05

> <r_ionizer_Ionization_penalty_charging>
2.08426e-05

> <r_ionizer_Ionization_penalty_neutral>
0

> <s_st_Chirality_1>
1_R_2_4_3_18

> <s_st_Chirality_2>
3_R_7_1_6_19

> <s_st_Chirality_3>
5_R_2_6_9_21

> <s_st_Chirality_4>
6_R_10_3_5_22

> <i_mmod_Serial_Number-OPLS-2005>
604

> <i_i_glide_lignum>
598

> <r_i_docking_score>
-5.52131

> <r_i_glide_gscore>
-5.52131

> <r_i_glide_lipo>
-0.481014

> <r_i_glide_hbond>
-1.1513

> <r_i_glide_metal>
0

> <r_i_glide_eburp>
-1.42274

> <r_i_glide_evdw>
-24.8219

> <r_i_glide_ecoul>
-12.2325

> <r_i_glide_erotb>
1.30549

> <r_i_glide_esite>
-0.562741

> <r_i_glide_emodel>
-64.1834

> <r_i_glide_energy>
-37.0544

> <r_i_glide_einternal>
5.89398

> <i_i_glide_confnum>
85

> <i_i_glide_posenum>
465

$$$$
C00178
                    3D
 Structure written by MMmdl.
 15 15  0  0  1  0            999 V2000
    3.5564    0.6214    2.2083 C   0  0  0  0  0  0
    3.7465    0.2290    3.6115 C   0  0  0  0  0  0
    2.2710    0.4045    1.6983 N   0  0  0  0  0  0
    4.4209    1.1090    1.4824 O   0  0  0  0  0  0
    2.7017   -0.3000    4.3000 C   0  0  0  0  0  0
    5.1155    0.4333    4.2380 C   0  0  0  0  0  0
    1.2045   -0.1388    2.4117 C   0  0  0  0  0  0
    1.4564   -0.4883    3.7377 N   0  0  0  0  0  0
    0.1001   -0.3016    1.9000 O   0  0  0  0  0  0
    2.1038    0.6624    0.7370 H   0  0  0  0  0  0
    2.8311   -0.5917    5.3322 H   0  0  0  0  0  0
    5.1360    0.1068    5.2781 H   0  0  0  0  0  0
    5.8719   -0.1334    3.6938 H   0  0  0  0  0  0
    5.3927    1.4877    4.2121 H   0  0  0  0  0  0
    0.6972   -0.8839    4.2735 H   0  0  0  0  0  0
  1  2  1  0  0  0
  1  3  1  0  0  0
  1  4  2  0  0  0
  2  5  2  0  0  0
  2  6  1  0  0  0
  3  7  1  0  0  0
  3 10  1  0  0  0
  5  8  1  0  0  0
  5 11  1  0  0  0
  6 12  1  0  0  0
  6 13  1  0  0  0
  6 14  1  0  0  0
  7  9  2  0  0  0
  7  8  1  0  0  0
  8 15  1  0  0  0
M  END
> <i_ionizer_Ion_state_n>
0

> <i_ionizer_Tot_Q>
0

> <s_ionizer_Ion_centers>


> <s_ionizer_Ion_types>


> <s_ionizer_Ion_ctrs_in>


> <r_ionizer_Ionization_penalty>
0

> <r_ionizer_Ionization_penalty_charging>
0

> <r_ionizer_Ionization_penalty_neutral>
0

> <i_mmod_Serial_Number-OPLS-2005>
124

> <i_i_glide_lignum>
122

> <r_i_docking_score>
-5.51856

> <r_i_glide_gscore>
-5.51856

> <r_i_glide_lipo>
-0.410892

> <r_i_glide_hbond>
-0.13331

> <r_i_glide_metal>
0

> <r_i_glide_eburp>
-2.5

> <r_i_glide_evdw>
-21.1437

> <r_i_glide_ecoul>
-2.95522

> <r_i_glide_erotb>
0

> <r_i_glide_esite>
-0.487336

> <r_i_glide_emodel>
-29.9661

> <r_i_glide_energy>
-24.0989

> <r_i_glide_einternal>
0

> <i_i_glide_confnum>
1

> <i_i_glide_posenum>
341

$$$$
C00025
                    3D
 Structure written by MMmdl.
 18 17  0  0  1  0            999 V2000
    1.4941    0.5747    3.8442 C   0  0  1  0  0  0
    1.8635    1.8839    3.1146 C   0  0  0  0  0  0
    1.0157   -0.4954    2.8531 C   0  0  0  0  0  0
    0.6764    2.4843    2.3325 C   0  0  0  0  0  0
   -0.0570   -0.2857    2.2426 O   0  0  0  0  0  0
   -0.2538    3.3661    3.1726 C   0  0  0  0  0  0
   -1.3587    3.6991    2.6899 O   0  0  0  0  0  0
    0.6986    0.7752    4.5644 H   0  0  0  0  0  0
    2.2472    2.6131    3.8308 H   0  0  0  0  0  0
    2.6785    1.6906    2.4142 H   0  0  0  0  0  0
    2.3699   -0.8032    5.0669 H   0  0  0  0  0  0
    3.3786   -0.1872    3.9184 H   0  0  0  0  0  0
    1.0480    3.0818    1.4993 H   0  0  0  0  0  0
    0.0721    1.6868    1.8996 H   0  0  0  0  0  0
    2.6497    0.0365    4.5810 N   0  3  0  0  0  0
    2.9830    0.7235    5.2412 H   0  0  0  0  0  0
    1.7470   -1.4980    2.7008 O   0  5  0  0  0  0
    0.1709    3.6993    4.2999 O   0  5  0  0  0  0
  1  2  1  0  0  0
  1  3  1  0  0  0
  1  8  1  0  0  0
  1 15  1  0  0  0
  2  4  1  0  0  0
  2  9  1  0  0  0
  2 10  1  0  0  0
  3  5  2  0  0  0
  3 17  1  0  0  0
  4  6  1  0  0  0
  4 13  1  0  0  0
  4 14  1  0  0  0
  6  7  2  0  0  0
  6 18  1  0  0  0
 11 15  1  0  0  0
 12 15  1  0  0  0
 15 16  1  0  0  0
M  CHG  3  15   1  17  -1  18  -1
M  END
> <i_ionizer_Ion_state_n>
7

> <i_ionizer_Tot_Q>
-1

> <s_ionizer_Ion_centers>
15_17_18

> <s_ionizer_Ion_types>
N5_OM_OM

> <s_ionizer_Ion_ctrs_in>
4_6_9

> <r_ionizer_Ionization_penalty>
0.00137171

> <r_ionizer_Ionization_penalty_charging>
0.00137171

> <r_ionizer_Ionization_penalty_neutral>
0

> <s_st_Chirality_1>
1_S_15_3_2_8

> <i_mmod_Serial_Number-OPLS-2005>
20

> <i_i_glide_lignum>
20

> <r_i_docking_score>
-5.51649

> <r_i_glide_gscore>
-5.51649

> <r_i_glide_lipo>
-0.223533

> <r_i_glide_hbond>
-1.88459

> <r_i_glide_metal>
0

> <r_i_glide_eburp>
-2.9

> <r_i_glide_evdw>
-6.50441

> <r_i_glide_ecoul>
-10.9848

> <r_i_glide_erotb>
1.55709

> <r_i_glide_esite>
-0.44663

> <r_i_glide_emodel>
-52.9136

> <r_i_glide_energy>
-17.4892

> <r_i_glide_einternal>
1.7372

> <i_i_glide_confnum>
4

> <i_i_glide_posenum>
286

$$$$
C05775
                    3D
 Structure written by MMmdl.
 39 41  0  0  1  0            999 V2000
    1.8976    4.6911    2.2042 N   0  0  0  0  0  0
    0.9034    5.6183    2.1558 C   0  0  0  0  0  0
    2.3356    3.9370    3.4247 C   0  0  1  0  0  0
    2.3439    4.6456    0.9299 C   0  0  0  0  0  0
    0.7384    6.1414    0.8524 C   0  0  0  0  0  0
    0.1039    6.0621    3.2071 C   0  0  0  0  0  0
    1.9161    2.5619    3.5011 O   0  0  0  0  0  0
    3.8555    3.8386    3.4772 C   0  0  1  0  0  0
   -0.2130    7.1049    0.5436 C   0  0  0  0  0  0
   -0.8714    7.0442    2.9181 C   0  0  0  0  0  0
    2.9097    1.6893    3.0748 C   0  0  1  0  0  0
    4.1499    2.5396    2.7603 C   0  0  1  0  0  0
    4.4881    4.9493    2.8593 O   0  0  0  0  0  0
   -1.0289    7.5580    1.6043 C   0  0  0  0  0  0
   -1.7526    7.5434    4.0507 C   0  0  0  0  0  0
    3.1782    0.7377    4.2512 C   0  0  0  0  0  0
    4.3653    2.7109    1.3708 O   0  0  0  0  0  0
   -2.0818    8.6129    1.3093 C   0  0  0  0  0  0
    4.0523   -0.2999    3.8584 O   0  0  0  0  0  0
    1.9277    4.4975    4.2666 H   0  0  0  0  0  0
    3.1487    3.9941    0.6204 H   0  0  0  0  0  0
    0.2240    5.6787    4.2093 H   0  0  0  0  0  0
    4.1911    3.7788    4.5130 H   0  0  0  0  0  0
   -0.3232    7.4912   -0.4591 H   0  0  0  0  0  0
    2.6342    1.1297    2.1788 H   0  0  0  0  0  0
    5.0305    2.0728    3.2045 H   0  0  0  0  0  0
    4.2247    4.9562    1.9503 H   0  0  0  0  0  0
   -1.5074    7.0543    4.9939 H   0  0  0  0  0  0
   -1.6252    8.6171    4.1904 H   0  0  0  0  0  0
   -2.8026    7.3435    3.8359 H   0  0  0  0  0  0
    3.6052    1.2743    5.0992 H   0  0  0  0  0  0
    2.2432    0.2911    4.5903 H   0  0  0  0  0  0
    3.6085    3.1491    1.0084 H   0  0  0  0  0  0
   -3.0775    8.2373    1.5461 H   0  0  0  0  0  0
   -1.9001    9.5111    1.8999 H   0  0  0  0  0  0
   -2.0763    8.9000    0.2573 H   0  0  0  0  0  0
    4.1974   -0.8688    4.5995 H   0  0  0  0  0  0
    1.7001    5.4804    0.0729 N   0  3  0  0  0  0
    1.8931    5.5871   -0.9147 H   0  0  0  0  0  0
  1  2  1  0  0  0
  1  3  1  0  0  0
  1  4  1  0  0  0
  2  5  2  0  0  0
  2  6  1  0  0  0
  3  7  1  0  0  0
  3  8  1  0  0  0
  3 20  1  0  0  0
  4 21  1  0  0  0
  4 38  2  0  0  0
  5  9  1  0  0  0
  5 38  1  0  0  0
  6 10  2  0  0  0
  6 22  1  0  0  0
  7 11  1  0  0  0
  8 12  1  0  0  0
  8 13  1  0  0  0
  8 23  1  0  0  0
  9 14  2  0  0  0
  9 24  1  0  0  0
 10 15  1  0  0  0
 10 14  1  0  0  0
 11 16  1  0  0  0
 11 12  1  0  0  0
 11 25  1  0  0  0
 12 17  1  0  0  0
 12 26  1  0  0  0
 13 27  1  0  0  0
 14 18  1  0  0  0
 15 28  1  0  0  0
 15 29  1  0  0  0
 15 30  1  0  0  0
 16 19  1  0  0  0
 16 31  1  0  0  0
 16 32  1  0  0  0
 17 33  1  0  0  0
 18 34  1  0  0  0
 18 35  1  0  0  0
 18 36  1  0  0  0
 19 37  1  0  0  0
 38 39  1  0  0  0
M  CHG  1  38   1
M  END
> <i_ionizer_Ion_state_n>
1

> <i_ionizer_Tot_Q>
1

> <s_ionizer_Ion_centers>
38

> <s_ionizer_Ion_types>
N4

> <s_ionizer_Ion_ctrs_in>
9

> <r_ionizer_Ionization_penalty>
0.41068

> <r_ionizer_Ionization_penalty_charging>
0.41068

> <r_ionizer_Ionization_penalty_neutral>
0

> <s_st_Chirality_1>
3_S_7_1_8_20

> <s_st_Chirality_2>
11_R_7_12_16_25

> <s_st_Chirality_3>
8_R_13_3_12_23

> <s_st_Chirality_4>
12_R_17_8_11_26

> <i_mmod_Serial_Number-OPLS-2005>
788

> <i_i_glide_lignum>
779

> <r_i_docking_score>
-5.5031

> <r_i_glide_gscore>
-5.5031

> <r_i_glide_lipo>
-1.01269

> <r_i_glide_hbond>
-0.45

> <r_i_glide_metal>
0

> <r_i_glide_eburp>
-1.67183

> <r_i_glide_evdw>
-24.3711

> <r_i_glide_ecoul>
-7.07206

> <r_i_glide_erotb>
0.528548

> <r_i_glide_esite>
-0.240233

> <r_i_glide_emodel>
-43.1058

> <r_i_glide_energy>
-31.4432

> <r_i_glide_einternal>
0.976379

> <i_i_glide_confnum>
10

> <i_i_glide_posenum>
830

$$$$
C00415
                    3D
 Structure written by MMmdl.
 51 53  0  0  1  0            999 V2000
   -3.3532    8.0540    3.5343 C   0  0  0  0  0  0
   -2.4028    8.9986    3.3038 C   0  0  0  0  0  0
   -3.5002    6.9656    2.6990 N   0  0  0  0  0  0
   -4.2415    8.1010    4.6096 N   0  0  0  0  0  0
   -1.5314    8.9085    2.2049 N   0  0  0  0  0  0
   -2.3020   10.1317    4.2334 C   0  0  0  0  0  0
   -2.6280    6.7879    1.5445 C   0  0  0  0  0  0
   -4.1521    9.1002    5.4289 C   0  0  0  0  0  0
   -1.6063    7.9241    1.3905 C   0  0  0  0  0  0
   -3.1964   10.1089    5.2512 N   0  0  0  0  0  0
   -1.4872   11.0479    4.1333 O   0  0  0  0  0  0
   -4.9478    9.2999    6.5375 N   0  0  0  0  0  0
   -0.6866    7.8111    0.1917 C   0  0  0  0  0  0
    0.7058    7.6574    0.5832 N   0  0  0  0  0  0
    1.3328    6.5231    0.9519 C   0  0  0  0  0  0
    2.7249    6.4242    0.7548 C   0  0  0  0  0  0
    0.6403    5.4374    1.5334 C   0  0  0  0  0  0
    3.4176    5.2556    1.1262 C   0  0  0  0  0  0
    1.3325    4.2682    1.9047 C   0  0  0  0  0  0
    2.7268    4.1626    1.6937 C   0  0  0  0  0  0
    3.4822    2.9301    2.1032 C   0  0  0  0  0  0
    3.3619    1.8844    1.2657 N   0  0  0  0  0  0
    4.1796    2.9357    3.1168 O   0  0  0  0  0  0
    4.1151    0.6275    1.2504 C   0  0  1  0  0  0
    3.2386   -0.6508    1.1818 C   0  0  0  0  0  0
    5.3227    0.6954    0.3040 C   0  0  0  0  0  0
    2.2893   -0.8327    2.3873 C   0  0  0  0  0  0
    6.1700   -0.2211    0.3903 O   0  0  0  0  0  0
    1.0426    0.0582    2.3422 C   0  0  0  0  0  0
    1.0226    1.0914    3.0477 O   0  0  0  0  0  0
   -4.2097    6.2716    2.8851 H   0  0  0  0  0  0
   -2.1009    5.8389    1.6448 H   0  0  0  0  0  0
   -3.2392    6.7291    0.6436 H   0  0  0  0  0  0
   -3.1607   10.8696    5.9126 H   0  0  0  0  0  0
   -5.6850    8.6638    6.8054 H   0  0  0  0  0  0
   -4.8609   10.0870    7.1634 H   0  0  0  0  0  0
   -0.9868    6.9553   -0.4145 H   0  0  0  0  0  0
   -0.7971    8.6993   -0.4315 H   0  0  0  0  0  0
    1.2154    8.5199    0.7140 H   0  0  0  0  0  0
    3.2728    7.2461    0.3170 H   0  0  0  0  0  0
   -0.4241    5.4867    1.7078 H   0  0  0  0  0  0
    4.4852    5.2024    0.9676 H   0  0  0  0  0  0
    0.7804    3.4583    2.3592 H   0  0  0  0  0  0
    2.6627    1.9698    0.5437 H   0  0  0  0  0  0
    4.5551    0.5973    2.2483 H   0  0  0  0  0  0
    2.6558   -0.6238    0.2598 H   0  0  0  0  0  0
    3.8684   -1.5377    1.1193 H   0  0  0  0  0  0
    1.9617   -1.8701    2.4590 H   0  0  0  0  0  0
    2.8267   -0.6099    3.3097 H   0  0  0  0  0  0
    5.3910    1.6726   -0.4735 O   0  5  0  0  0  0
    0.1198   -0.3125    1.5841 O   0  5  0  0  0  0
  1  2  2  0  0  0
  1  3  1  0  0  0
  1  4  1  0  0  0
  2  5  1  0  0  0
  2  6  1  0  0  0
  3  7  1  0  0  0
  3 31  1  0  0  0
  4  8  2  0  0  0
  5  9  2  0  0  0
  6 10  1  0  0  0
  6 11  2  0  0  0
  7  9  1  0  0  0
  7 32  1  0  0  0
  7 33  1  0  0  0
  8 12  1  0  0  0
  8 10  1  0  0  0
  9 13  1  0  0  0
 10 34  1  0  0  0
 12 35  1  0  0  0
 12 36  1  0  0  0
 13 14  1  0  0  0
 13 37  1  0  0  0
 13 38  1  0  0  0
 14 15  1  0  0  0
 14 39  1  0  0  0
 15 16  2  0  0  0
 15 17  1  0  0  0
 16 18  1  0  0  0
 16 40  1  0  0  0
 17 19  2  0  0  0
 17 41  1  0  0  0
 18 20  2  0  0  0
 18 42  1  0  0  0
 19 20  1  0  0  0
 19 43  1  0  0  0
 20 21  1  0  0  0
 21 22  1  0  0  0
 21 23  2  0  0  0
 22 24  1  0  0  0
 22 44  1  0  0  0
 24 25  1  0  0  0
 24 26  1  0  0  0
 24 45  1  0  0  0
 25 27  1  0  0  0
 25 46  1  0  0  0
 25 47  1  0  0  0
 26 28  2  0  0  0
 26 50  1  0  0  0
 27 29  1  0  0  0
 27 48  1  0  0  0
 27 49  1  0  0  0
 29 30  2  0  0  0
 29 51  1  0  0  0
M  CHG  2  50  -1  51  -1
M  END
> <i_ionizer_Ion_state_n>
6

> <i_ionizer_Tot_Q>
-2

> <s_ionizer_Ion_centers>
50_51

> <s_ionizer_Ion_types>
OM_OM

> <s_ionizer_Ion_ctrs_in>
28_31

> <r_ionizer_Ionization_penalty>
0.00305503

> <r_ionizer_Ionization_penalty_charging>
0.00118438

> <r_ionizer_Ionization_penalty_neutral>
0.00187065

> <s_st_Chirality_1>
24_S_22_26_25_45

> <s_st_EZ_1>
2_5_9_7_Z

> <i_mmod_Serial_Number-OPLS-2005>
229

> <i_i_glide_lignum>
227

> <r_i_docking_score>
-5.5019

> <r_i_glide_gscore>
-5.5019

> <r_i_glide_lipo>
-1.23671

> <r_i_glide_hbond>
-1.45286

> <r_i_glide_metal>
0

> <r_i_glide_eburp>
-0.44389

> <r_i_glide_evdw>
-40.3885

> <r_i_glide_ecoul>
-6.12382

> <r_i_glide_erotb>
0.937315

> <r_i_glide_esite>
0.537698

> <r_i_glide_emodel>
-90.8514

> <r_i_glide_energy>
-46.5123

> <r_i_glide_einternal>
11.0469

> <i_i_glide_confnum>
90

> <i_i_glide_posenum>
711

$$$$
C00095
                    3D
 Structure written by MMmdl.
 24 24  0  0  1  0            999 V2000
    1.7247    0.7846    2.6317 C   0  0  2  0  0  0
    2.4042    0.3731    3.9469 C   0  0  2  0  0  0
    2.7585    1.3835    1.9167 O   0  0  0  0  0  0
    0.6038    1.8190    2.8378 C   0  0  0  0  0  0
    1.2169   -0.3514    1.9599 O   0  0  0  0  0  0
    3.7517   -0.1278    3.4493 C   0  0  1  0  0  0
    1.6985   -0.6197    4.6685 O   0  0  0  0  0  0
    3.9975    0.7283    2.1918 C   0  0  1  0  0  0
    0.9258    2.7703    3.8343 O   0  0  0  0  0  0
    4.7582    0.1002    4.4157 O   0  0  0  0  0  0
    4.4438   -0.0781    0.9613 C   0  0  0  0  0  0
    4.7758    0.7955   -0.0979 O   0  0  0  0  0  0
    2.5324    1.2658    4.5621 H   0  0  0  0  0  0
    0.4409    2.3496    1.8989 H   0  0  0  0  0  0
   -0.3238    1.3049    3.0923 H   0  0  0  0  0  0
    0.8378   -0.0451    1.1493 H   0  0  0  0  0  0
    3.7028   -1.1881    3.1948 H   0  0  0  0  0  0
    2.2251   -0.8731    5.4113 H   0  0  0  0  0  0
    4.7230    1.5190    2.3913 H   0  0  0  0  0  0
    1.7277    3.2052    3.5868 H   0  0  0  0  0  0
    4.7470   -0.6197    5.0289 H   0  0  0  0  0  0
    5.2972   -0.7155    1.1944 H   0  0  0  0  0  0
    3.6357   -0.7303    0.6291 H   0  0  0  0  0  0
    4.6722    0.3312   -0.9148 H   0  0  0  0  0  0
  1  2  1  0  0  0
  1  3  1  0  0  0
  1  4  1  0  0  0
  1  5  1  0  0  0
  2  6  1  0  0  0
  2  7  1  0  0  0
  2 13  1  0  0  0
  3  8  1  0  0  0
  4  9  1  0  0  0
  4 14  1  0  0  0
  4 15  1  0  0  0
  5 16  1  0  0  0
  6 10  1  0  0  0
  6  8  1  0  0  0
  6 17  1  0  0  0
  7 18  1  0  0  0
  8 11  1  0  0  0
  8 19  1  0  0  0
  9 20  1  0  0  0
 10 21  1  0  0  0
 11 12  1  0  0  0
 11 22  1  0  0  0
 11 23  1  0  0  0
 12 24  1  0  0  0
M  END
> <i_ionizer_Ion_state_n>
0

> <i_ionizer_Tot_Q>
0

> <s_ionizer_Ion_centers>


> <s_ionizer_Ion_types>


> <s_ionizer_Ion_ctrs_in>


> <r_ionizer_Ionization_penalty>
0

> <r_ionizer_Ionization_penalty_charging>
0

> <r_ionizer_Ionization_penalty_neutral>
0

> <s_st_Chirality_1>
2_S_7_1_6_13

> <s_st_Chirality_2>
6_R_10_2_8_17

> <s_st_Chirality_3>
8_R_3_6_11_19

> <s_st_Chirality_4>
1_R_3_5_2_4

> <i_mmod_Serial_Number-OPLS-2005>
67

> <i_i_glide_lignum>
66

> <r_i_docking_score>
-5.50121

> <r_i_glide_gscore>
-5.50121

> <r_i_glide_lipo>
-0.442681

> <r_i_glide_hbond>
-0.910749

> <r_i_glide_metal>
0

> <r_i_glide_eburp>
-2.42304

> <r_i_glide_evdw>
-16.406

> <r_i_glide_ecoul>
-12.1255

> <r_i_glide_erotb>
1.1095

> <r_i_glide_esite>
-0.309219

> <r_i_glide_emodel>
-35.1244

> <r_i_glide_energy>
-28.5315

> <r_i_glide_einternal>
5.41708

> <i_i_glide_confnum>
5

> <i_i_glide_posenum>
704

$$$$
C05653
                    3D
 Structure written by MMmdl.
 18 18  0  0  1  0            999 V2000
    1.4271    3.4121    2.6037 C   0  0  0  0  0  0
    1.9905    2.1018    2.7267 C   0  0  0  0  0  0
    2.1469    4.3926    1.8774 C   0  0  0  0  0  0
    0.0958    3.8166    3.2090 C   0  0  0  0  0  0
    3.2444    1.8281    2.1209 C   0  0  0  0  0  0
    1.2959    1.0883    3.4499 N   0  0  0  0  0  0
    3.3876    4.1047    1.2838 C   0  0  0  0  0  0
   -0.6406    4.6470    2.6302 O   0  0  0  0  0  0
    3.9370    2.8201    1.4060 C   0  0  0  0  0  0
    1.6963   -0.1550    3.7563 C   0  0  0  0  0  0
    0.9771   -0.9574    4.3464 O   0  0  0  0  0  0
    1.7465    5.3900    1.7681 H   0  0  0  0  0  0
    3.7046    0.8554    2.1889 H   0  0  0  0  0  0
    0.3732    1.3612    3.7698 H   0  0  0  0  0  0
    3.9159    4.8705    0.7354 H   0  0  0  0  0  0
    4.8902    2.5938    0.9516 H   0  0  0  0  0  0
    2.7210   -0.3757    3.4280 H   0  0  0  0  0  0
   -0.2445    3.3001    4.2970 O   0  5  0  0  0  0
  1  2  1  0  0  0
  1  3  2  0  0  0
  1  4  1  0  0  0
  2  5  2  0  0  0
  2  6  1  0  0  0
  3  7  1  0  0  0
  3 12  1  0  0  0
  4  8  2  0  0  0
  4 18  1  0  0  0
  5  9  1  0  0  0
  5 13  1  0  0  0
  6 10  1  0  0  0
  6 14  1  0  0  0
  7  9  2  0  0  0
  7 15  1  0  0  0
  9 16  1  0  0  0
 10 11  2  0  0  0
 10 17  1  0  0  0
M  CHG  1  18  -1
M  END
> <i_ionizer_Ion_state_n>
1

> <i_ionizer_Tot_Q>
-1

> <s_ionizer_Ion_centers>
18

> <s_ionizer_Ion_types>
OM

> <s_ionizer_Ion_ctrs_in>
8

> <r_ionizer_Ionization_penalty>
0.00059219

> <r_ionizer_Ionization_penalty_charging>
0.00059219

> <r_ionizer_Ionization_penalty_neutral>
0

> <i_mmod_Serial_Number-OPLS-2005>
774

> <i_i_glide_lignum>
765

> <r_i_docking_score>
-5.49652

> <r_i_glide_gscore>
-5.49652

> <r_i_glide_lipo>
-0.479501

> <r_i_glide_hbond>
-0.568108

> <r_i_glide_metal>
0

> <r_i_glide_eburp>
-2.5

> <r_i_glide_evdw>
-18.6502

> <r_i_glide_ecoul>
-6.18155

> <r_i_glide_erotb>
0.645805

> <r_i_glide_esite>
-0.484548

> <r_i_glide_emodel>
-47.1638

> <r_i_glide_energy>
-24.8317

> <r_i_glide_einternal>
3.23542

> <i_i_glide_confnum>
3

> <i_i_glide_posenum>
429

$$$$
C01243
                    3D
 Structure written by MMmdl.
 33 33  0  0  1  0            999 V2000
    1.0056   -0.7004    3.2083 P   0  0  0  0  0  0
    1.5854    0.9970    3.3742 O   0  0  0  0  0  0
   -0.1214   -0.5348    2.1631 O   0  0  0  0  0  0
    2.6650    1.5030    2.5813 C   0  0  2  0  0  0
    2.5185    2.9730    2.1125 C   0  0  2  0  0  0
    3.1872    0.5439    1.4842 C   0  0  2  0  0  0
    3.8410    3.4800    1.4612 C   0  0  1  0  0  0
    2.2705    3.7016    3.3172 O   0  0  0  0  0  0
    4.5786    1.0365    1.0298 C   0  0  2  0  0  0
    2.3699    0.5514    0.3306 O   0  0  0  0  0  0
    4.5156    2.4775    0.4869 C   0  0  2  0  0  0
    3.5666    4.6398    0.6991 O   0  0  0  0  0  0
    0.7461    4.6445    3.4609 P   0  0  0  0  0  0
    5.1239    0.2171   -0.0010 O   0  0  0  0  0  0
    5.8619    2.8711    0.3001 O   0  0  0  0  0  0
    0.5894    5.2255    2.0370 O   0  0  0  0  0  0
    6.8344   -0.3000    0.1491 P   0  0  0  0  0  0
    7.6232    0.9630   -0.2640 O   0  0  0  0  0  0
    3.4621    1.5267    3.3256 H   0  0  0  0  0  0
    1.6873    3.0634    1.4149 H   0  0  0  0  0  0
    3.2376   -0.4682    1.8847 H   0  0  0  0  0  0
    4.5428    3.7300    2.2585 H   0  0  0  0  0  0
    5.2549    1.0161    1.8859 H   0  0  0  0  0  0
    2.8295    0.0619   -0.3362 H   0  0  0  0  0  0
    4.0030    2.4799   -0.4764 H   0  0  0  0  0  0
    3.9607    4.5081   -0.1576 H   0  0  0  0  0  0
    6.3142    2.6818    1.1095 H   0  0  0  0  0  0
    2.2426   -1.4822    2.7163 O   0  5  0  0  0  0
    0.5122   -1.0232    4.6368 O   0  5  0  0  0  0
   -0.2995    3.5808    3.8596 O   0  5  0  0  0  0
    1.1102    5.6730    4.5548 O   0  5  0  0  0  0
    6.9051   -0.6969    1.6396 O   0  5  0  0  0  0
    6.8829   -1.4721   -0.8562 O   0  5  0  0  0  0
  1  2  1  0  0  0
  1  3  2  0  0  0
  1 28  1  0  0  0
  1 29  1  0  0  0
  2  4  1  0  0  0
  4  5  1  0  0  0
  4  6  1  0  0  0
  4 19  1  0  0  0
  5  7  1  0  0  0
  5  8  1  0  0  0
  5 20  1  0  0  0
  6  9  1  0  0  0
  6 10  1  0  0  0
  6 21  1  0  0  0
  7 11  1  0  0  0
  7 12  1  0  0  0
  7 22  1  0  0  0
  8 13  1  0  0  0
  9 14  1  0  0  0
  9 11  1  0  0  0
  9 23  1  0  0  0
 10 24  1  0  0  0
 11 15  1  0  0  0
 11 25  1  0  0  0
 12 26  1  0  0  0
 13 16  2  0  0  0
 13 30  1  0  0  0
 13 31  1  0  0  0
 14 17  1  0  0  0
 15 27  1  0  0  0
 17 18  2  0  0  0
 17 32  1  0  0  0
 17 33  1  0  0  0
M  CHG  6  28  -1  29  -1  30  -1  31  -1  32  -1  33  -1
M  END
> <i_ionizer_Ion_state_n>
63

> <i_ionizer_Tot_Q>
-6

> <s_ionizer_Ion_centers>
28_29_30_31_32_33

> <s_ionizer_Ion_types>
OM_OM_OM_OM_OM_OM

> <s_ionizer_Ion_ctrs_in>
3_4_18_19_22_23

> <r_ionizer_Ionization_penalty>
4.47534e-05

> <r_ionizer_Ionization_penalty_charging>
4.47534e-05

> <r_ionizer_Ionization_penalty_neutral>
0

> <s_st_Chirality_1>
4_S_2_5_6_19

> <s_st_Chirality_2>
5_S_8_4_7_20

> <s_st_Chirality_3>
6_S_10_4_9_21

> <s_st_Chirality_4>
7_R_12_5_11_22

> <s_st_Chirality_5>
9_S_14_6_11_23

> <s_st_Chirality_6>
11_R_15_9_7_25

> <i_mmod_Serial_Number-OPLS-2005>
430

> <i_i_glide_lignum>
426

> <r_i_docking_score>
-5.49536

> <r_i_glide_gscore>
-5.49536

> <r_i_glide_lipo>
-0.484606

> <r_i_glide_hbond>
-1.78761

> <r_i_glide_metal>
0

> <r_i_glide_eburp>
-0.651129

> <r_i_glide_evdw>
-11.3015

> <r_i_glide_ecoul>
-13.3183

> <r_i_glide_erotb>
0.394656

> <r_i_glide_esite>
-0.730719

> <r_i_glide_emodel>
-68.5304

> <r_i_glide_energy>
-24.6198

> <r_i_glide_einternal>
16.355

> <i_i_glide_confnum>
15

> <i_i_glide_posenum>
293

$$$$
C02646
                    3D
 Structure written by MMmdl.
 21 21  0  0  1  0            999 V2000
    1.7090    2.1702    3.3768 C   0  0  0  0  0  0
    2.9819    2.7640    3.2302 C   0  0  0  0  0  0
    1.6251    0.8633    3.9129 C   0  0  0  0  0  0
    0.5201    2.9373    2.9633 C   0  0  0  0  0  0
    4.1478    2.0711    3.6098 C   0  0  0  0  0  0
    2.7902    0.1686    4.2932 C   0  0  0  0  0  0
    0.4608    4.2606    2.7275 C   0  0  0  0  0  0
    4.0532    0.7718    4.1420 C   0  0  0  0  0  0
   -0.7956    4.9927    2.3082 C   0  0  0  0  0  0
    5.1833    0.1015    4.5095 O   0  0  0  0  0  0
   -1.8966    4.1111    2.2993 O   0  0  0  0  0  0
    3.0718    3.7606    2.8232 H   0  0  0  0  0  0
    0.6725    0.3735    4.0420 H   0  0  0  0  0  0
   -0.3874    2.3634    2.8409 H   0  0  0  0  0  0
    5.1142    2.5389    3.4915 H   0  0  0  0  0  0
    2.7083   -0.8283    4.7010 H   0  0  0  0  0  0
    1.3367    4.8809    2.8390 H   0  0  0  0  0  0
   -1.0004    5.8282    2.9786 H   0  0  0  0  0  0
   -0.6556    5.3989    1.3062 H   0  0  0  0  0  0
    5.0063   -0.7394    4.9021 H   0  0  0  0  0  0
   -1.8159    3.5346    1.5547 H   0  0  0  0  0  0
  1  2  2  0  0  0
  1  3  1  0  0  0
  1  4  1  0  0  0
  2  5  1  0  0  0
  2 12  1  0  0  0
  3  6  2  0  0  0
  3 13  1  0  0  0
  4  7  2  0  0  0
  4 14  1  0  0  0
  5  8  2  0  0  0
  5 15  1  0  0  0
  6  8  1  0  0  0
  6 16  1  0  0  0
  7  9  1  0  0  0
  7 17  1  0  0  0
  8 10  1  0  0  0
  9 11  1  0  0  0
  9 18  1  0  0  0
  9 19  1  0  0  0
 10 20  1  0  0  0
 11 21  1  0  0  0
M  END
> <i_ionizer_Ion_state_n>
0

> <i_ionizer_Tot_Q>
0

> <s_ionizer_Ion_centers>


> <s_ionizer_Ion_types>


> <s_ionizer_Ion_ctrs_in>


> <r_ionizer_Ionization_penalty>
0.00059219

> <r_ionizer_Ionization_penalty_charging>
0

> <r_ionizer_Ionization_penalty_neutral>
0.00059219

> <s_st_EZ_1>
1_4_7_9_E

> <i_mmod_Serial_Number-OPLS-2005>
503

> <i_i_glide_lignum>
498

> <r_i_docking_score>
-5.48634

> <r_i_glide_gscore>
-5.48634

> <r_i_glide_lipo>
-0.776815

> <r_i_glide_hbond>
-0.95

> <r_i_glide_metal>
0

> <r_i_glide_eburp>
-2.5

> <r_i_glide_evdw>
-17.0026

> <r_i_glide_ecoul>
-9.4301

> <r_i_glide_erotb>
1.49049

> <r_i_glide_esite>
-0.446789

> <r_i_glide_emodel>
-35.9432

> <r_i_glide_energy>
-26.4327

> <r_i_glide_einternal>
2.71682

> <i_i_glide_confnum>
2

> <i_i_glide_posenum>
362

$$$$
C05966
                    3D
 Structure written by MMmdl.
 55 54  0  0  1  0            999 V2000
    3.3199    4.7711    1.3050 C   0  0  2  0  0  0
    3.9548    4.5923    2.6752 C   0  0  0  0  0  0
    2.2891    5.9172    1.2810 C   0  0  0  0  0  0
    2.7786    3.5472    0.8165 O   0  0  0  0  0  0
    4.3118    3.4040    3.1880 C   0  0  0  0  0  0
    1.1220    5.6814    2.2528 C   0  0  0  0  0  0
    2.5003    3.6730   -0.6099 O   0  0  0  0  0  0
    4.8750    3.2491    4.5164 C   0  0  0  0  0  0
    0.0202    6.7424    2.1275 C   0  0  0  0  0  0
    5.2050    2.0769    5.0925 C   0  0  0  0  0  0
   -0.7485    6.6352    0.8027 C   0  0  0  0  0  0
    5.0978    0.6921    4.4781 C   0  0  0  0  0  0
    0.1314    6.9408   -0.4140 C   0  0  0  0  0  0
    3.6631    0.1981    4.4928 C   0  0  0  0  0  0
    2.7932    0.2200    3.4651 C   0  0  0  0  0  0
    3.0362    0.7907    2.0797 C   0  0  0  0  0  0
    2.8443   -0.2705    1.0117 C   0  0  0  0  0  0
    3.7527   -0.6966    0.1128 C   0  0  0  0  0  0
    5.1957   -0.2426   -0.0300 C   0  0  0  0  0  0
    6.1615   -1.4110   -0.2669 C   0  0  0  0  0  0
    7.4456   -0.9559   -0.9897 C   0  0  0  0  0  0
    8.2346    0.0994   -0.2062 C   0  0  0  0  0  0
    8.0447    1.3067   -0.4735 O   0  0  0  0  0  0
    4.1191    5.0376    0.6114 H   0  0  0  0  0  0
    4.1109    5.4902    3.2555 H   0  0  0  0  0  0
    2.7656    6.8737    1.4980 H   0  0  0  0  0  0
    1.8918    6.0034    0.2687 H   0  0  0  0  0  0
    4.1548    2.5359    2.5705 H   0  0  0  0  0  0
    0.6920    4.6964    2.0708 H   0  0  0  0  0  0
    1.4977    5.6649    3.2763 H   0  0  0  0  0  0
    3.3661    3.8501   -0.9450 H   0  0  0  0  0  0
    5.0328    4.1443    5.1008 H   0  0  0  0  0  0
   -0.6754    6.6483    2.9622 H   0  0  0  0  0  0
    0.4663    7.7349    2.2049 H   0  0  0  0  0  0
    5.5928    2.0998    6.1007 H   0  0  0  0  0  0
   -1.1620    5.6309    0.7003 H   0  0  0  0  0  0
   -1.5982    7.3184    0.8151 H   0  0  0  0  0  0
    5.5163    0.6563    3.4778 H   0  0  0  0  0  0
    5.7029    0.0052    5.0700 H   0  0  0  0  0  0
   -0.4414    6.8580   -1.3378 H   0  0  0  0  0  0
    0.5388    7.9507   -0.3629 H   0  0  0  0  0  0
    0.9670    6.2430   -0.4778 H   0  0  0  0  0  0
    3.3295   -0.2155    5.4334 H   0  0  0  0  0  0
    1.8108   -0.2015    3.6214 H   0  0  0  0  0  0
    2.3115    1.5864    1.9068 H   0  0  0  0  0  0
    4.0079    1.2670    2.0122 H   0  0  0  0  0  0
    1.8607   -0.7168    0.9851 H   0  0  0  0  0  0
    3.4445   -1.4520   -0.5953 H   0  0  0  0  0  0
    5.3091    0.4808   -0.8316 H   0  0  0  0  0  0
    5.4694    0.2812    0.8863 H   0  0  0  0  0  0
    6.4180   -1.8705    0.6890 H   0  0  0  0  0  0
    5.6567   -2.1777   -0.8570 H   0  0  0  0  0  0
    8.0987   -1.8105   -1.1690 H   0  0  0  0  0  0
    7.1928   -0.5418   -1.9664 H   0  0  0  0  0  0
    9.0089   -0.3291    0.6769 O   0  5  0  0  0  0
  1  2  1  0  0  0
  1  3  1  0  0  0
  1  4  1  0  0  0
  1 24  1  0  0  0
  2  5  2  0  0  0
  2 25  1  0  0  0
  3  6  1  0  0  0
  3 26  1  0  0  0
  3 27  1  0  0  0
  4  7  1  0  0  0
  5  8  1  0  0  0
  5 28  1  0  0  0
  6  9  1  0  0  0
  6 29  1  0  0  0
  6 30  1  0  0  0
  7 31  1  0  0  0
  8 10  2  0  0  0
  8 32  1  0  0  0
  9 11  1  0  0  0
  9 33  1  0  0  0
  9 34  1  0  0  0
 10 12  1  0  0  0
 10 35  1  0  0  0
 11 13  1  0  0  0
 11 36  1  0  0  0
 11 37  1  0  0  0
 12 14  1  0  0  0
 12 38  1  0  0  0
 12 39  1  0  0  0
 13 40  1  0  0  0
 13 41  1  0  0  0
 13 42  1  0  0  0
 14 15  2  0  0  0
 14 43  1  0  0  0
 15 16  1  0  0  0
 15 44  1  0  0  0
 16 17  1  0  0  0
 16 45  1  0  0  0
 16 46  1  0  0  0
 17 18  2  0  0  0
 17 47  1  0  0  0
 18 19  1  0  0  0
 18 48  1  0  0  0
 19 20  1  0  0  0
 19 49  1  0  0  0
 19 50  1  0  0  0
 20 21  1  0  0  0
 20 51  1  0  0  0
 20 52  1  0  0  0
 21 22  1  0  0  0
 21 53  1  0  0  0
 21 54  1  0  0  0
 22 23  2  0  0  0
 22 55  1  0  0  0
M  CHG  1  55  -1
M  END
> <i_ionizer_Ion_state_n>
1

> <i_ionizer_Tot_Q>
-1

> <s_ionizer_Ion_centers>
55

> <s_ionizer_Ion_types>
OM

> <s_ionizer_Ion_ctrs_in>
23

> <r_ionizer_Ionization_penalty>
0.00059219

> <r_ionizer_Ionization_penalty_charging>
0.00059219

> <r_ionizer_Ionization_penalty_neutral>
0

> <s_st_Chirality_1>
1_S_4_2_3_24

> <s_st_EZ_1>
1_2_5_8_E

> <s_st_EZ_2>
12_14_15_16_Z

> <s_st_EZ_3>
16_17_18_19_Z

> <i_mmod_Serial_Number-OPLS-2005>
838

> <i_i_glide_lignum>
826

> <r_i_docking_score>
-5.48386

> <r_i_glide_gscore>
-5.48386

> <r_i_glide_lipo>
-1.6293

> <r_i_glide_hbond>
-0.45

> <r_i_glide_metal>
0

> <r_i_glide_eburp>
-1.24646

> <r_i_glide_evdw>
-32.4803

> <r_i_glide_ecoul>
-5.74755

> <r_i_glide_erotb>
2.49169

> <r_i_glide_esite>
-1.47662

> <r_i_glide_emodel>
-58.4216

> <r_i_glide_energy>
-38.2278

> <r_i_glide_einternal>
10.6684

> <i_i_glide_confnum>
415

> <i_i_glide_posenum>
445

$$$$
C05379
                    3D
 Structure written by MMmdl.
 16 15  0  0  1  0            999 V2000
    1.7910    1.0891    2.2756 C   0  0  1  0  0  0
    1.0888    1.8340    3.4305 C   0  0  0  0  0  0
    3.3311    0.9944    2.4989 C   0  0  0  0  0  0
    1.1351   -0.2997    2.1336 C   0  0  0  0  0  0
    0.6323    3.2852    3.1749 C   0  0  0  0  0  0
    0.9244    1.3045    4.5324 O   0  0  0  0  0  0
    4.1003    2.2695    2.1230 C   0  0  0  0  0  0
    0.0826   -0.3884    1.4608 O   0  0  0  0  0  0
    1.2627    3.9149    2.2961 O   0  0  0  0  0  0
    4.8118    2.2479    1.0941 O   0  0  0  0  0  0
    1.6073    1.6499    1.3577 H   0  0  0  0  0  0
    3.5388    0.7904    3.5498 H   0  0  0  0  0  0
    3.7490    0.1559    1.9391 H   0  0  0  0  0  0
    1.7041   -1.2606    2.6982 O   0  5  0  0  0  0
   -0.3003    3.6991    3.8998 O   0  5  0  0  0  0
    3.9239    3.2693    2.8538 O   0  5  0  0  0  0
  1  2  1  0  0  0
  1  3  1  0  0  0
  1  4  1  0  0  0
  1 11  1  0  0  0
  2  5  1  0  0  0
  2  6  2  0  0  0
  3  7  1  0  0  0
  3 12  1  0  0  0
  3 13  1  0  0  0
  4  8  2  0  0  0
  4 14  1  0  0  0
  5  9  2  0  0  0
  5 15  1  0  0  0
  7 10  2  0  0  0
  7 16  1  0  0  0
M  CHG  3  14  -1  15  -1  16  -1
M  END
> <i_ionizer_Ion_state_n>
7

> <i_ionizer_Tot_Q>
-3

> <s_ionizer_Ion_centers>
14_15_16

> <s_ionizer_Ion_types>
OM_OM_OM

> <s_ionizer_Ion_ctrs_in>
8_10_12

> <r_ionizer_Ionization_penalty>
0.00177657

> <r_ionizer_Ionization_penalty_charging>
0.00177657

> <r_ionizer_Ionization_penalty_neutral>
0

> <s_st_Chirality_1>
1_R_4_2_3_11

> <i_mmod_Serial_Number-OPLS-2005>
678

> <i_i_glide_lignum>
671

> <r_i_docking_score>
-5.4727

> <r_i_glide_gscore>
-5.4727

> <r_i_glide_lipo>
-0.172444

> <r_i_glide_hbond>
-1.14064

> <r_i_glide_metal>
0

> <r_i_glide_eburp>
-2.37056

> <r_i_glide_evdw>
-15.9468

> <r_i_glide_ecoul>
-8.55593

> <r_i_glide_erotb>
1.04264

> <r_i_glide_esite>
-0.700349

> <r_i_glide_emodel>
-60.4208

> <r_i_glide_energy>
-24.5027

> <r_i_glide_einternal>
4.02334

> <i_i_glide_confnum>
4

> <i_i_glide_posenum>
841

$$$$
C00811
                    3D
 Structure written by MMmdl.
 19 19  0  0  1  0            999 V2000
    1.8792    2.1581    3.4920 C   0  0  0  0  0  0
    1.8251    0.8333    3.9777 C   0  0  0  0  0  0
    3.1419    2.7808    3.3513 C   0  0  0  0  0  0
    0.6163    2.8377    3.1514 C   0  0  0  0  0  0
    3.0044    0.1419    4.3167 C   0  0  0  0  0  0
    4.3227    2.0910    3.6898 C   0  0  0  0  0  0
    0.4813    4.0714    2.6321 C   0  0  0  0  0  0
    4.2553    0.7704    4.1730 C   0  0  0  0  0  0
   -0.8827    4.7200    2.2999 C   0  0  0  0  0  0
    5.3973    0.1001    4.5015 O   0  0  0  0  0  0
   -1.8928    4.1003    2.6974 O   0  0  0  0  0  0
    0.8723    0.3375    4.0934 H   0  0  0  0  0  0
    3.2258    3.7916    2.9837 H   0  0  0  0  0  0
   -0.2865    2.2753    3.3440 H   0  0  0  0  0  0
    2.9464   -0.8712    4.6869 H   0  0  0  0  0  0
    5.2783    2.5815    3.5762 H   0  0  0  0  0  0
    1.3516    4.6721    2.4221 H   0  0  0  0  0  0
    5.2326   -0.7381    4.9053 H   0  0  0  0  0  0
   -0.8361    5.7830    1.6442 O   0  5  0  0  0  0
  1  2  1  0  0  0
  1  3  2  0  0  0
  1  4  1  0  0  0
  2  5  2  0  0  0
  2 12  1  0  0  0
  3  6  1  0  0  0
  3 13  1  0  0  0
  4  7  2  0  0  0
  4 14  1  0  0  0
  5  8  1  0  0  0
  5 15  1  0  0  0
  6  8  2  0  0  0
  6 16  1  0  0  0
  7  9  1  0  0  0
  7 17  1  0  0  0
  8 10  1  0  0  0
  9 11  2  0  0  0
  9 19  1  0  0  0
 10 18  1  0  0  0
M  CHG  1  19  -1
M  END
> <i_ionizer_Ion_state_n>
2

> <i_ionizer_Tot_Q>
-1

> <s_ionizer_Ion_centers>
19

> <s_ionizer_Ion_types>
OM

> <s_ionizer_Ion_ctrs_in>
11

> <r_ionizer_Ionization_penalty>
0.00118438

> <r_ionizer_Ionization_penalty_charging>
0.00059219

> <r_ionizer_Ionization_penalty_neutral>
0.00059219

> <s_st_EZ_1>
1_4_7_9_E

> <i_mmod_Serial_Number-OPLS-2005>
339

> <i_i_glide_lignum>
336

> <r_i_docking_score>
-5.47065

> <r_i_glide_gscore>
-5.47065

> <r_i_glide_lipo>
-0.69969

> <r_i_glide_hbond>
-1.11512

> <r_i_glide_metal>
0

> <r_i_glide_eburp>
-2.5

> <r_i_glide_evdw>
-15.3296

> <r_i_glide_ecoul>
-9.09874

> <r_i_glide_erotb>
1.3043

> <r_i_glide_esite>
-0.323915

> <r_i_glide_emodel>
-46.9083

> <r_i_glide_energy>
-24.4283

> <r_i_glide_einternal>
0.358316

> <i_i_glide_confnum>
1

> <i_i_glide_posenum>
610

$$$$
C03557
                    3D
 Structure written by MMmdl.
 14 13  0  0  1  0            999 V2000
    1.9898    1.1206    4.2640 C   0  0  0  0  0  0
    0.8988    2.2381    3.2164 P   0  0  0  0  0  0
    3.0306    0.4133    3.3901 C   0  0  0  0  0  0
    0.0995    2.9956    4.2992 O   0  0  0  0  0  0
    2.4893    1.7055    5.0365 H   0  0  0  0  0  0
    1.3777    0.3828    4.7831 H   0  0  0  0  0  0
    2.6226   -0.5131    2.9850 H   0  0  0  0  0  0
    3.3074    1.0412    2.5427 H   0  0  0  0  0  0
    4.9115   -0.3646    3.5685 H   0  0  0  0  0  0
    4.6382    0.9577    4.5194 H   0  0  0  0  0  0
    1.9508    3.0664    2.4468 O   0  5  0  0  0  0
    0.1069    1.2056    2.3856 O   0  5  0  0  0  0
    4.2414    0.1000    4.1638 N   0  3  0  0  0  0
    3.9946   -0.5031    4.9350 H   0  0  0  0  0  0
  1  2  1  0  0  0
  1  3  1  0  0  0
  1  5  1  0  0  0
  1  6  1  0  0  0
  2  4  2  0  0  0
  2 11  1  0  0  0
  2 12  1  0  0  0
  3  7  1  0  0  0
  3  8  1  0  0  0
  3 13  1  0  0  0
  9 13  1  0  0  0
 10 13  1  0  0  0
 13 14  1  0  0  0
M  CHG  3  11  -1  12  -1  13   1
M  END
> <i_ionizer_Ion_state_n>
7

> <i_ionizer_Tot_Q>
-1

> <s_ionizer_Ion_centers>
11_12_13

> <s_ionizer_Ion_types>
OM_OM_N5

> <s_ionizer_Ion_ctrs_in>
4_5_7

> <r_ionizer_Ionization_penalty>
0.000224802

> <r_ionizer_Ionization_penalty_charging>
0.000224802

> <r_ionizer_Ionization_penalty_neutral>
0

> <i_mmod_Serial_Number-OPLS-2005>
553

> <i_i_glide_lignum>
547

> <r_i_docking_score>
-5.46961

> <r_i_glide_gscore>
-5.46961

> <r_i_glide_lipo>
-0.188617

> <r_i_glide_hbond>
-1.06966

> <r_i_glide_metal>
0

> <r_i_glide_eburp>
-2.5

> <r_i_glide_evdw>
-7.85175

> <r_i_glide_ecoul>
-8.98897

> <r_i_glide_erotb>
0

> <r_i_glide_esite>
-0.184297

> <r_i_glide_emodel>
-44.5734

> <r_i_glide_energy>
-16.8407

> <r_i_glide_einternal>
1.58523

> <i_i_glide_confnum>
1

> <i_i_glide_posenum>
374

$$$$
C03758
                    3D
 Structure written by MMmdl.
 23 23  0  0  1  0            999 V2000
    4.4345    0.9423    4.2802 C   0  0  0  0  0  0
    3.2597    0.1627    4.3283 C   0  0  0  0  0  0
    4.3739    2.2675    3.8000 C   0  0  0  0  0  0
    5.7562    0.3554    4.7375 C   0  0  0  0  0  0
    2.0323    0.7049    3.8996 C   0  0  0  0  0  0
    3.1466    2.8103    3.3718 C   0  0  0  0  0  0
    5.8634    0.2985    6.2679 C   0  0  0  0  0  0
    1.9740    2.0304    3.4209 C   0  0  0  0  0  0
    0.8999   -0.0545    3.9477 O   0  0  0  0  0  0
    0.7849    2.5585    3.0046 O   0  0  0  0  0  0
    3.2971   -0.8536    4.6931 H   0  0  0  0  0  0
    5.2678    2.8726    3.7575 H   0  0  0  0  0  0
    5.8663   -0.6443    4.3146 H   0  0  0  0  0  0
    6.5695    0.9543    4.3249 H   0  0  0  0  0  0
    3.1101    3.8260    3.0061 H   0  0  0  0  0  0
    6.0870    1.2876    6.6693 H   0  0  0  0  0  0
    4.9145   -0.0182    6.7026 H   0  0  0  0  0  0
    1.0694   -0.9020    4.3320 H   0  0  0  0  0  0
    6.9621   -0.6503    7.7084 H   0  0  0  0  0  0
    6.7070   -1.5640    6.3606 H   0  0  0  0  0  0
    0.8792    3.3949    2.5750 H   0  0  0  0  0  0
    6.9171   -0.6359    6.6993 N   0  3  0  0  0  0
    7.8079   -0.3366    6.3290 H   0  0  0  0  0  0
  1  2  1  0  0  0
  1  3  2  0  0  0
  1  4  1  0  0  0
  2  5  2  0  0  0
  2 11  1  0  0  0
  3  6  1  0  0  0
  3 12  1  0  0  0
  4  7  1  0  0  0
  4 13  1  0  0  0
  4 14  1  0  0  0
  5  8  1  0  0  0
  5  9  1  0  0  0
  6  8  2  0  0  0
  6 15  1  0  0  0
  7 16  1  0  0  0
  7 17  1  0  0  0
  7 22  1  0  0  0
  8 10  1  0  0  0
  9 18  1  0  0  0
 10 21  1  0  0  0
 19 22  1  0  0  0
 20 22  1  0  0  0
 22 23  1  0  0  0
M  CHG  1  22   1
M  END
> <i_ionizer_Ion_state_n>
2

> <i_ionizer_Tot_Q>
1

> <s_ionizer_Ion_centers>
22

> <s_ionizer_Ion_types>
N5

> <s_ionizer_Ion_ctrs_in>
10

> <r_ionizer_Ionization_penalty>
0.00137171

> <r_ionizer_Ionization_penalty_charging>
0.000187331

> <r_ionizer_Ionization_penalty_neutral>
0.00118438

> <i_mmod_Serial_Number-OPLS-2005>
563

> <i_i_glide_lignum>
557

> <r_i_docking_score>
-5.46602

> <r_i_glide_gscore>
-5.46602

> <r_i_glide_lipo>
-0.81438

> <r_i_glide_hbond>
-0.731351

> <r_i_glide_metal>
0

> <r_i_glide_eburp>
-2.5

> <r_i_glide_evdw>
-18.1525

> <r_i_glide_ecoul>
-8.9722

> <r_i_glide_erotb>
0.714401

> <r_i_glide_esite>
0.214724

> <r_i_glide_emodel>
-44.2888

> <r_i_glide_energy>
-27.1247

> <r_i_glide_einternal>
1.0381

> <i_i_glide_confnum>
4

> <i_i_glide_posenum>
375

$$$$
C07083
                    3D
 Structure written by MMmdl.
 16 16  0  0  1  0            999 V2000
    3.3173    0.8318    4.0711 C   0  0  0  0  0  0
    2.5041   -0.2999    4.3003 C   0  0  0  0  0  0
    2.9015    1.7870    3.1135 C   0  0  0  0  0  0
    4.5674    0.9729    4.8388 C   0  0  0  0  0  0
    1.3007   -0.4772    3.5903 C   0  0  0  0  0  0
    1.6980    1.6109    2.4027 C   0  0  0  0  0  0
    5.3703    2.0500    4.8698 C   0  0  0  0  0  0
    0.8965    0.4789    2.6403 C   0  0  0  0  0  0
    2.8011   -1.0426    5.0266 H   0  0  0  0  0  0
    3.4947    2.6649    2.9095 H   0  0  0  0  0  0
    4.8570    0.1177    5.4325 H   0  0  0  0  0  0
    0.6879   -1.3472    3.7752 H   0  0  0  0  0  0
    1.3899    2.3461    1.6739 H   0  0  0  0  0  0
    6.2674    2.0434    5.4713 H   0  0  0  0  0  0
    5.1609    2.9481    4.3095 H   0  0  0  0  0  0
   -0.0261    0.3443    2.0951 H   0  0  0  0  0  0
  1  2  2  0  0  0
  1  3  1  0  0  0
  1  4  1  0  0  0
  2  5  1  0  0  0
  2  9  1  0  0  0
  3  6  2  0  0  0
  3 10  1  0  0  0
  4  7  2  0  0  0
  4 11  1  0  0  0
  5  8  2  0  0  0
  5 12  1  0  0  0
  6  8  1  0  0  0
  6 13  1  0  0  0
  7 14  1  0  0  0
  7 15  1  0  0  0
  8 16  1  0  0  0
M  END
> <i_ionizer_Ion_state_n>
0

> <i_ionizer_Tot_Q>
0

> <s_ionizer_Ion_centers>


> <s_ionizer_Ion_types>


> <s_ionizer_Ion_ctrs_in>


> <r_ionizer_Ionization_penalty>
0

> <r_ionizer_Ionization_penalty_charging>
0

> <r_ionizer_Ionization_penalty_neutral>
0

> <i_mmod_Serial_Number-OPLS-2005>
891

> <i_i_glide_lignum>
879

> <r_i_docking_score>
-5.46255

> <r_i_glide_gscore>
-5.46255

> <r_i_glide_lipo>
-0.817948

> <r_i_glide_hbond>
0

> <r_i_glide_metal>
0

> <r_i_glide_eburp>
-2.5

> <r_i_glide_evdw>
-16.4866

> <r_i_glide_ecoul>
-1.16062

> <r_i_glide_erotb>
0

> <r_i_glide_esite>
-0.70961

> <r_i_glide_emodel>
-21.146

> <r_i_glide_energy>
-17.6472

> <r_i_glide_einternal>
0.102665

> <i_i_glide_confnum>
1

> <i_i_glide_posenum>
161

$$$$
C02515
                    3D
 Structure written by MMmdl.
 24 24  0  0  1  0            999 V2000
    5.3551   -0.0862    0.1945 C   0  0  0  0  0  0
    5.3527    1.3189    0.3035 C   0  0  0  0  0  0
    4.4973   -0.8568    1.0031 C   0  0  0  0  0  0
    6.6580   -1.0592   -1.1981 I   0  0  0  0  0  0
    4.4908    1.9509    1.2218 C   0  0  0  0  0  0
    6.1836    2.0670   -0.4790 O   0  0  0  0  0  0
    3.6318   -0.2271    1.9228 C   0  0  0  0  0  0
    3.6329    1.1795    2.0298 C   0  0  0  0  0  0
    2.7004   -1.0560    2.7941 C   0  0  0  0  0  0
    1.6132   -0.2272    3.5194 C   0  0  1  0  0  0
    0.6255    0.4289    2.5431 C   0  0  0  0  0  0
    0.1001   -0.3008    1.6722 O   0  0  0  0  0  0
    4.5007   -1.9328    0.9083 H   0  0  0  0  0  0
    4.4830    3.0274    1.3099 H   0  0  0  0  0  0
    6.8298    1.5512   -0.9358 H   0  0  0  0  0  0
    2.9733    1.6711    2.7298 H   0  0  0  0  0  0
    2.2394   -1.8342    2.1833 H   0  0  0  0  0  0
    3.3096   -1.5818    3.5304 H   0  0  0  0  0  0
    2.1003    0.5480    4.1138 H   0  0  0  0  0  0
    0.1680   -0.4971    4.9306 H   0  0  0  0  0  0
    0.3587   -1.7801    3.9160 H   0  0  0  0  0  0
    0.8439   -1.0715    4.4478 N   0  3  0  0  0  0
    1.4652   -1.5052    5.1148 H   0  0  0  0  0  0
    0.3909    1.6464    2.7026 O   0  5  0  0  0  0
  1  2  1  0  0  0
  1  3  2  0  0  0
  1  4  1  0  0  0
  2  5  2  0  0  0
  2  6  1  0  0  0
  3  7  1  0  0  0
  3 13  1  0  0  0
  5  8  1  0  0  0
  5 14  1  0  0  0
  6 15  1  0  0  0
  7  9  1  0  0  0
  7  8  2  0  0  0
  8 16  1  0  0  0
  9 10  1  0  0  0
  9 17  1  0  0  0
  9 18  1  0  0  0
 10 11  1  0  0  0
 10 19  1  0  0  0
 10 22  1  0  0  0
 11 12  2  0  0  0
 11 24  1  0  0  0
 20 22  1  0  0  0
 21 22  1  0  0  0
 22 23  1  0  0  0
M  CHG  2  22   1  24  -1
M  END
> <i_ionizer_Ion_state_n>
6

> <i_ionizer_Tot_Q>
0

> <s_ionizer_Ion_centers>
22_24

> <s_ionizer_Ion_types>
N5_OM

> <s_ionizer_Ion_ctrs_in>
12_13

> <r_ionizer_Ionization_penalty>
0.00137171

> <r_ionizer_Ionization_penalty_charging>
0.000779521

> <r_ionizer_Ionization_penalty_neutral>
0.00059219

> <s_st_Chirality_1>
10_S_22_11_9_19

> <s_st_EZ_1>
4_1_3_7_E

> <s_st_EZ_2>
6_2_5_8_E

> <i_mmod_Serial_Number-OPLS-2005>
496

> <i_i_glide_lignum>
491

> <r_i_docking_score>
-5.45668

> <r_i_glide_gscore>
-5.45668

> <r_i_glide_lipo>
-0.953213

> <r_i_glide_hbond>
-0.905101

> <r_i_glide_metal>
0

> <r_i_glide_eburp>
-1.46144

> <r_i_glide_evdw>
-14.4831

> <r_i_glide_ecoul>
-4.44402

> <r_i_glide_erotb>
0.447954

> <r_i_glide_esite>
-0.981822

> <r_i_glide_emodel>
-39.5532

> <r_i_glide_energy>
-18.9272

> <r_i_glide_einternal>
3.55094

> <i_i_glide_confnum>
3

> <i_i_glide_posenum>
132

$$$$
C00227
                    3D
 Structure written by MMmdl.
 11 10  0  0  1  0            999 V2000
    0.9226    2.2931    3.2157 P   0  0  0  0  0  0
    1.5175    1.2044    4.5066 O   0  0  0  0  0  0
    2.2374    2.8318    2.6077 O   0  0  0  0  0  0
    1.9053   -0.0552    4.2837 C   0  0  0  0  0  0
    3.3980   -0.1525    4.0009 C   0  0  0  0  0  0
    1.1903   -1.0568    4.2923 O   0  0  0  0  0  0
    3.6879   -1.1878    3.8214 H   0  0  0  0  0  0
    3.6527    0.4379    3.1209 H   0  0  0  0  0  0
    3.9665    0.2260    4.8502 H   0  0  0  0  0  0
    0.0995    1.3321    2.3281 O   0  5  0  0  0  0
    0.1002    3.3127    4.0346 O   0  5  0  0  0  0
  1  2  1  0  0  0
  1  3  2  0  0  0
  1 10  1  0  0  0
  1 11  1  0  0  0
  2  4  1  0  0  0
  4  5  1  0  0  0
  4  6  2  0  0  0
  5  7  1  0  0  0
  5  8  1  0  0  0
  5  9  1  0  0  0
M  CHG  2  10  -1  11  -1
M  END
> <i_ionizer_Ion_state_n>
3

> <i_ionizer_Tot_Q>
-2

> <s_ionizer_Ion_centers>
10_11

> <s_ionizer_Ion_types>
OM_OM

> <s_ionizer_Ion_ctrs_in>
3_4

> <r_ionizer_Ionization_penalty>
1.49178e-05

> <r_ionizer_Ionization_penalty_charging>
1.49178e-05

> <r_ionizer_Ionization_penalty_neutral>
0

> <i_mmod_Serial_Number-OPLS-2005>
149

> <i_i_glide_lignum>
147

> <r_i_docking_score>
-5.45213

> <r_i_glide_gscore>
-5.45213

> <r_i_glide_lipo>
-0.114068

> <r_i_glide_hbond>
-0.7

> <r_i_glide_metal>
0

> <r_i_glide_eburp>
-2.5

> <r_i_glide_evdw>
-13.869

> <r_i_glide_ecoul>
-6.07218

> <r_i_glide_erotb>
0

> <r_i_glide_esite>
-0.421322

> <r_i_glide_emodel>
-42.7261

> <r_i_glide_energy>
-19.9412

> <r_i_glide_einternal>
3.4177

> <i_i_glide_confnum>
1

> <i_i_glide_posenum>
43

$$$$
C01042
                    3D
 Structure written by MMmdl.
 19 18  0  0  1  0            999 V2000
    1.1999    0.9565    3.5675 C   0  0  2  0  0  0
    1.1968    2.2403    2.6949 C   0  0  0  0  0  0
    2.5173    0.8432    4.1938 N   0  0  0  0  0  0
    0.9320   -0.2981    2.7123 C   0  0  0  0  0  0
    0.8603    3.5390    3.4400 C   0  0  0  0  0  0
    3.6652    1.3315    3.6999 C   0  0  0  0  0  0
   -0.0200   -0.2515    1.9001 O   0  0  0  0  0  0
    1.7517    4.4144    3.4998 O   0  0  0  0  0  0
    4.9050    1.1347    4.5648 C   0  0  0  0  0  0
    3.7552    1.9071    2.6162 O   0  0  0  0  0  0
    0.4280    1.0410    4.3353 H   0  0  0  0  0  0
    2.1783    2.3709    2.2385 H   0  0  0  0  0  0
    0.4935    2.1253    1.8681 H   0  0  0  0  0  0
    2.5410    0.4048    5.1022 H   0  0  0  0  0  0
    5.7843    1.5654    4.0848 H   0  0  0  0  0  0
    4.7732    1.6181    5.5332 H   0  0  0  0  0  0
    5.0904    0.0729    4.7287 H   0  0  0  0  0  0
    1.7013   -1.2720    2.8665 O   0  5  0  0  0  0
   -0.2973    3.6504    3.9003 O   0  5  0  0  0  0
  1  2  1  0  0  0
  1  3  1  0  0  0
  1  4  1  0  0  0
  1 11  1  0  0  0
  2  5  1  0  0  0
  2 12  1  0  0  0
  2 13  1  0  0  0
  3  6  1  0  0  0
  3 14  1  0  0  0
  4  7  2  0  0  0
  4 18  1  0  0  0
  5  8  2  0  0  0
  5 19  1  0  0  0
  6  9  1  0  0  0
  6 10  2  0  0  0
  9 15  1  0  0  0
  9 16  1  0  0  0
  9 17  1  0  0  0
M  CHG  2  18  -1  19  -1
M  END
> <i_ionizer_Ion_state_n>
3

> <i_ionizer_Tot_Q>
-2

> <s_ionizer_Ion_centers>
18_19

> <s_ionizer_Ion_types>
OM_OM

> <s_ionizer_Ion_ctrs_in>
7_9

> <r_ionizer_Ionization_penalty>
0.00118438

> <r_ionizer_Ionization_penalty_charging>
0.00118438

> <r_ionizer_Ionization_penalty_neutral>
0

> <s_st_Chirality_1>
1_S_3_4_2_11

> <i_mmod_Serial_Number-OPLS-2005>
379

> <i_i_glide_lignum>
375

> <r_i_docking_score>
-5.4487

> <r_i_glide_gscore>
-5.4487

> <r_i_glide_lipo>
-0.268573

> <r_i_glide_hbond>
-1.13525

> <r_i_glide_metal>
0

> <r_i_glide_eburp>
-2.47632

> <r_i_glide_evdw>
-16.2596

> <r_i_glide_ecoul>
-7.98897

> <r_i_glide_erotb>
1.1843

> <r_i_glide_esite>
-0.653191

> <r_i_glide_emodel>
-53.6331

> <r_i_glide_energy>
-24.2486

> <r_i_glide_einternal>
6.06613

> <i_i_glide_confnum>
5

> <i_i_glide_posenum>
627

$$$$
C03167
                    3D
 Structure written by MMmdl.
 10  9  0  0  1  0            999 V2000
    1.6688    0.9108    4.4503 C   0  0  0  0  0  0
    0.9198    2.1405    3.2357 P   0  0  0  0  0  0
    2.3599   -0.2320    3.7156 C   0  0  0  0  0  0
    0.0995    1.2236    2.3007 O   0  0  0  0  0  0
    1.7010   -1.0768    3.1110 O   0  0  0  0  0  0
    2.3984    1.3970    5.0971 H   0  0  0  0  0  0
    0.9031    0.4901    5.1012 H   0  0  0  0  0  0
    3.4489   -0.2456    3.7636 H   0  0  0  0  0  0
    0.1006    3.0650    4.1641 O   0  5  0  0  0  0
    2.1850    2.7703    2.6125 O   0  5  0  0  0  0
  1  2  1  0  0  0
  1  3  1  0  0  0
  1  6  1  0  0  0
  1  7  1  0  0  0
  2  4  2  0  0  0
  2  9  1  0  0  0
  2 10  1  0  0  0
  3  5  2  0  0  0
  3  8  1  0  0  0
M  CHG  2   9  -1  10  -1
M  END
> <i_ionizer_Ion_state_n>
3

> <i_ionizer_Tot_Q>
-2

> <s_ionizer_Ion_centers>
9_10

> <s_ionizer_Ion_types>
OM_OM

> <s_ionizer_Ion_ctrs_in>
4_5

> <r_ionizer_Ionization_penalty>
3.74715e-05

> <r_ionizer_Ionization_penalty_charging>
3.74715e-05

> <r_ionizer_Ionization_penalty_neutral>
0

> <i_mmod_Serial_Number-OPLS-2005>
526

> <i_i_glide_lignum>
520

> <r_i_docking_score>
-5.4432

> <r_i_glide_gscore>
-5.4432

> <r_i_glide_lipo>
-0.099997

> <r_i_glide_hbond>
-0.708425

> <r_i_glide_metal>
0

> <r_i_glide_eburp>
-2.5

> <r_i_glide_evdw>
-11.6028

> <r_i_glide_ecoul>
-6.84622

> <r_i_glide_erotb>
0

> <r_i_glide_esite>
-0.52193

> <r_i_glide_emodel>
-40.7505

> <r_i_glide_energy>
-18.449

> <r_i_glide_einternal>
1.17934

> <i_i_glide_confnum>
1

> <i_i_glide_posenum>
464

$$$$
C04734
                    3D
 Structure written by MMmdl.
 37 38  0  0  1  0            999 V2000
    1.1333    5.1668    2.0145 N   0  0  0  0  0  0
    2.6043    4.9244    1.8530 C   0  0  2  0  0  0
    0.3770    6.2036    1.4643 C   0  0  0  0  0  0
    0.2628    4.4262    2.7155 C   0  0  0  0  0  0
    2.7743    3.8674    0.9524 O   0  0  0  0  0  0
    3.1946    4.4848    3.1964 C   0  0  1  0  0  0
   -0.9259    6.0259    1.9109 C   0  0  0  0  0  0
    1.0127    7.1183    0.6872 N   0  0  0  0  0  0
   -0.9830    4.8761    2.7005 N   0  0  0  0  0  0
    3.3490    2.7295    1.5958 C   0  0  1  0  0  0
    3.1219    2.9701    3.0899 C   0  0  1  0  0  0
    4.5171    4.9613    3.3480 O   0  0  0  0  0  0
   -2.1124    6.9081    1.7005 C   0  0  0  0  0  0
    0.8801    7.2470   -0.6389 C   0  0  0  0  0  0
    2.7259    1.4477    1.0178 C   0  0  0  0  0  0
    4.0724    2.3361    3.9223 O   0  0  0  0  0  0
   -1.8265    8.0956    1.1623 N   0  0  0  0  0  0
   -3.2573    6.5920    2.0153 O   0  0  0  0  0  0
    0.1602    6.5134   -1.3114 O   0  0  0  0  0  0
    2.8321    0.3741    1.9379 O   0  0  0  0  0  0
    1.3018   -0.1433    2.7111 P   0  0  0  0  0  0
    1.7006   -1.4987    3.3351 O   0  0  0  0  0  0
    3.0031    5.8599    1.4589 H   0  0  0  0  0  0
    0.5491    3.5372    3.2578 H   0  0  0  0  0  0
    2.6032    4.8592    4.0334 H   0  0  0  0  0  0
    1.7592    7.6435    1.1196 H   0  0  0  0  0  0
    4.4164    2.7592    1.3702 H   0  0  0  0  0  0
    2.1220    2.6379    3.3728 H   0  0  0  0  0  0
    4.4840    5.9052    3.2842 H   0  0  0  0  0  0
    1.4666    8.0872   -1.0405 H   0  0  0  0  0  0
    1.6995    1.6219    0.6933 H   0  0  0  0  0  0
    3.2798    1.1457    0.1291 H   0  0  0  0  0  0
    4.9323    2.6556    3.6557 H   0  0  0  0  0  0
   -2.5640    8.7626    0.9909 H   0  0  0  0  0  0
   -0.8698    8.3053    0.9153 H   0  0  0  0  0  0
    1.0380    1.0099    3.7047 O   0  5  0  0  0  0
    0.3536   -0.2175    1.4949 O   0  5  0  0  0  0
  1  2  1  0  0  0
  1  3  1  0  0  0
  1  4  1  0  0  0
  2  5  1  0  0  0
  2  6  1  0  0  0
  2 23  1  0  0  0
  3  7  2  0  0  0
  3  8  1  0  0  0
  4  9  2  0  0  0
  4 24  1  0  0  0
  5 10  1  0  0  0
  6 11  1  0  0  0
  6 12  1  0  0  0
  6 25  1  0  0  0
  7 13  1  0  0  0
  7  9  1  0  0  0
  8 14  1  0  0  0
  8 26  1  0  0  0
 10 15  1  0  0  0
 10 11  1  0  0  0
 10 27  1  0  0  0
 11 16  1  0  0  0
 11 28  1  0  0  0
 12 29  1  0  0  0
 13 17  1  0  0  0
 13 18  2  0  0  0
 14 19  2  0  0  0
 14 30  1  0  0  0
 15 20  1  0  0  0
 15 31  1  0  0  0
 15 32  1  0  0  0
 16 33  1  0  0  0
 17 34  1  0  0  0
 17 35  1  0  0  0
 20 21  1  0  0  0
 21 22  2  0  0  0
 21 36  1  0  0  0
 21 37  1  0  0  0
M  CHG  2  36  -1  37  -1
M  END
> <i_ionizer_Ion_state_n>
6

> <i_ionizer_Tot_Q>
-2

> <s_ionizer_Ion_centers>
36_37

> <s_ionizer_Ion_types>
OM_OM

> <s_ionizer_Ion_ctrs_in>
22_23

> <r_ionizer_Ionization_penalty>
0.410695

> <r_ionizer_Ionization_penalty_charging>
1.49178e-05

> <r_ionizer_Ionization_penalty_neutral>
0.41068

> <s_st_Chirality_1>
2_R_5_1_6_23

> <s_st_Chirality_2>
6_R_12_2_11_25

> <s_st_Chirality_3>
10_R_5_11_15_27

> <s_st_Chirality_4>
11_R_16_6_10_28

> <i_mmod_Serial_Number-OPLS-2005>
608

> <i_i_glide_lignum>
602

> <r_i_docking_score>
-5.44111

> <r_i_glide_gscore>
-5.44111

> <r_i_glide_lipo>
-0.506569

> <r_i_glide_hbond>
-0.605419

> <r_i_glide_metal>
0

> <r_i_glide_eburp>
-1.02871

> <r_i_glide_evdw>
-41.1469

> <r_i_glide_ecoul>
-8.67108

> <r_i_glide_erotb>
0.662447

> <r_i_glide_esite>
0.195998

> <r_i_glide_emodel>
-89.2385

> <r_i_glide_energy>
-49.818

> <r_i_glide_einternal>
15.8597

> <i_i_glide_confnum>
45

> <i_i_glide_posenum>
507

$$$$
C00164
                    3D
 Structure written by MMmdl.
 12 11  0  0  1  0            999 V2000
    1.3093    0.2801    2.9761 C   0  0  0  0  0  0
    1.4816    1.3821    4.0216 C   0  0  0  0  0  0
    2.4583   -0.7050    2.7853 C   0  0  0  0  0  0
    0.2915    0.2045    2.2894 O   0  0  0  0  0  0
    0.8831    2.6876    3.5007 C   0  0  0  0  0  0
    1.2074    3.0420    2.3459 O   0  0  0  0  0  0
    0.9880    1.0921    4.9493 H   0  0  0  0  0  0
    2.5402    1.5236    4.2404 H   0  0  0  0  0  0
    2.4590   -1.0989    1.7690 H   0  0  0  0  0  0
    3.4150   -0.2158    2.9682 H   0  0  0  0  0  0
    2.3575   -1.5382    3.4809 H   0  0  0  0  0  0
    0.0999    3.3006    4.2586 O   0  5  0  0  0  0
  1  2  1  0  0  0
  1  3  1  0  0  0
  1  4  2  0  0  0
  2  5  1  0  0  0
  2  7  1  0  0  0
  2  8  1  0  0  0
  3  9  1  0  0  0
  3 10  1  0  0  0
  3 11  1  0  0  0
  5  6  2  0  0  0
  5 12  1  0  0  0
M  CHG  1  12  -1
M  END
> <i_ionizer_Ion_state_n>
1

> <i_ionizer_Tot_Q>
-1

> <s_ionizer_Ion_centers>
12

> <s_ionizer_Ion_types>
OM

> <s_ionizer_Ion_ctrs_in>
6

> <r_ionizer_Ionization_penalty>
0.00059219

> <r_ionizer_Ionization_penalty_charging>
0.00059219

> <r_ionizer_Ionization_penalty_neutral>
0

> <i_mmod_Serial_Number-OPLS-2005>
118

> <i_i_glide_lignum>
116

> <r_i_docking_score>
-5.44082

> <r_i_glide_gscore>
-5.44082

> <r_i_glide_lipo>
-0.20916

> <r_i_glide_hbond>
-0.7

> <r_i_glide_metal>
0

> <r_i_glide_eburp>
-2.5

> <r_i_glide_evdw>
-12.7438

> <r_i_glide_ecoul>
-5.08135

> <r_i_glide_erotb>
0

> <r_i_glide_esite>
-0.504017

> <r_i_glide_emodel>
-34.845

> <r_i_glide_energy>
-17.8252

> <r_i_glide_einternal>
0.466296

> <i_i_glide_confnum>
1

> <i_i_glide_posenum>
960

$$$$
C06207
                    3D
 Structure written by MMmdl.
 19 19  0  0  1  0            999 V2000
    2.2782    2.6611    2.9440 C   0  0  0  0  0  0
    3.3071    3.6127    3.1577 C   0  0  0  0  0  0
    2.4041    1.3702    3.5174 C   0  0  0  0  0  0
    1.0372    3.0247    2.1281 C   0  0  0  0  0  0
    4.4341    3.2763    3.9343 C   0  0  0  0  0  0
    3.2313    4.8679    2.6239 O   0  0  0  0  0  0
    3.5299    1.0456    4.2988 C   0  0  0  0  0  0
    1.4484    0.4154    3.3153 O   0  0  0  0  0  0
   -0.0502    3.5268    3.0789 C   0  0  0  0  0  0
    4.5448    1.9965    4.5072 C   0  0  0  0  0  0
   -1.0170    4.1268    2.5586 O   0  0  0  0  0  0
    1.2828    3.7982    1.3995 H   0  0  0  0  0  0
    0.6622    2.1765    1.5556 H   0  0  0  0  0  0
    5.2181    4.0013    4.0969 H   0  0  0  0  0  0
    3.9996    5.3912    2.7906 H   0  0  0  0  0  0
    3.6197    0.0609    4.7338 H   0  0  0  0  0  0
    1.6610   -0.3988    3.7534 H   0  0  0  0  0  0
    5.4090    1.7432    5.1033 H   0  0  0  0  0  0
    0.0997    3.3018    4.2996 O   0  5  0  0  0  0
  1  2  1  0  0  0
  1  3  2  0  0  0
  1  4  1  0  0  0
  2  5  2  0  0  0
  2  6  1  0  0  0
  3  7  1  0  0  0
  3  8  1  0  0  0
  4  9  1  0  0  0
  4 12  1  0  0  0
  4 13  1  0  0  0
  5 10  1  0  0  0
  5 14  1  0  0  0
  6 15  1  0  0  0
  7 10  2  0  0  0
  7 16  1  0  0  0
  8 17  1  0  0  0
  9 11  2  0  0  0
  9 19  1  0  0  0
 10 18  1  0  0  0
M  CHG  1  19  -1
M  END
> <i_ionizer_Ion_state_n>
4

> <i_ionizer_Tot_Q>
-1

> <s_ionizer_Ion_centers>
19

> <s_ionizer_Ion_types>
OM

> <s_ionizer_Ion_ctrs_in>
11

> <r_ionizer_Ionization_penalty>
0.00177657

> <r_ionizer_Ionization_penalty_charging>
0.00059219

> <r_ionizer_Ionization_penalty_neutral>
0.00118438

> <i_mmod_Serial_Number-OPLS-2005>
868

> <i_i_glide_lignum>
856

> <r_i_docking_score>
-5.4394

> <r_i_glide_gscore>
-5.4394

> <r_i_glide_lipo>
-0.601642

> <r_i_glide_hbond>
-1.09492

> <r_i_glide_metal>
0

> <r_i_glide_eburp>
-2.5

> <r_i_glide_evdw>
-15.7425

> <r_i_glide_ecoul>
-6.56701

> <r_i_glide_erotb>
0.627087

> <r_i_glide_esite>
0.0461761

> <r_i_glide_emodel>
-46.9424

> <r_i_glide_energy>
-22.3095

> <r_i_glide_einternal>
0.681409

> <i_i_glide_confnum>
2

> <i_i_glide_posenum>
218

$$$$
C01245
                    3D
 Structure written by MMmdl.
 33 33  0  0  1  0            999 V2000
    2.8112    4.8831    1.8028 P   0  0  0  0  0  0
    3.0879    3.3530    0.8993 O   0  0  0  0  0  0
    4.0864    5.0395    2.6613 O   0  0  0  0  0  0
    3.9304    2.3461    1.4653 C   0  0  1  0  0  0
    2.9081    1.3523    2.0968 C   0  0  1  0  0  0
    4.8301    1.7294    0.3519 C   0  0  2  0  0  0
    3.4264   -0.0981    2.2733 C   0  0  2  0  0  0
    2.3863    1.9035    3.3145 O   0  0  0  0  0  0
    5.2842    0.2773    0.6141 C   0  0  1  0  0  0
    6.0425    2.4518    0.2755 O   0  0  0  0  0  0
    4.1107   -0.6386    1.0051 C   0  0  2  0  0  0
    2.3522   -0.9685    2.5850 O   0  0  0  0  0  0
    0.6173    1.8763    3.6836 P   0  0  0  0  0  0
    5.9381   -0.1844   -0.5684 O   0  0  0  0  0  0
    3.2068   -0.6989   -0.0843 O   0  0  0  0  0  0
    0.3090    3.2959    4.2086 O   0  0  0  0  0  0
    7.6794   -0.6080   -0.4734 P   0  0  0  0  0  0
    8.3772    0.7694   -0.5284 O   0  0  0  0  0  0
    4.5564    2.7779    2.2428 H   0  0  0  0  0  0
    2.0619    1.2921    1.4107 H   0  0  0  0  0  0
    4.3114    1.7779   -0.6063 H   0  0  0  0  0  0
    4.1534   -0.1653    3.0791 H   0  0  0  0  0  0
    6.0045    0.2724    1.4347 H   0  0  0  0  0  0
    5.8197    3.3695    0.3130 H   0  0  0  0  0  0
    4.4583   -1.6496    1.2130 H   0  0  0  0  0  0
    2.7152   -1.7760    2.9119 H   0  0  0  0  0  0
    3.7328   -0.7121   -0.8726 H   0  0  0  0  0  0
    2.6171    5.9108    0.6643 O   0  5  0  0  0  0
    1.5268    4.5434    2.5929 O   0  5  0  0  0  0
    0.0163    1.5359    2.3013 O   0  5  0  0  0  0
    0.5208    0.7444    4.7316 O   0  5  0  0  0  0
    7.7404   -1.3495    0.8812 O   0  5  0  0  0  0
    7.8486   -1.4943   -1.7270 O   0  5  0  0  0  0
  1  2  1  0  0  0
  1  3  2  0  0  0
  1 28  1  0  0  0
  1 29  1  0  0  0
  2  4  1  0  0  0
  4  5  1  0  0  0
  4  6  1  0  0  0
  4 19  1  0  0  0
  5  7  1  0  0  0
  5  8  1  0  0  0
  5 20  1  0  0  0
  6  9  1  0  0  0
  6 10  1  0  0  0
  6 21  1  0  0  0
  7 11  1  0  0  0
  7 12  1  0  0  0
  7 22  1  0  0  0
  8 13  1  0  0  0
  9 14  1  0  0  0
  9 11  1  0  0  0
  9 23  1  0  0  0
 10 24  1  0  0  0
 11 15  1  0  0  0
 11 25  1  0  0  0
 12 26  1  0  0  0
 13 16  2  0  0  0
 13 30  1  0  0  0
 13 31  1  0  0  0
 14 17  1  0  0  0
 15 27  1  0  0  0
 17 18  2  0  0  0
 17 32  1  0  0  0
 17 33  1  0  0  0
M  CHG  6  28  -1  29  -1  30  -1  31  -1  32  -1  33  -1
M  END
> <i_ionizer_Ion_state_n>
63

> <i_ionizer_Tot_Q>
-6

> <s_ionizer_Ion_centers>
28_29_30_31_32_33

> <s_ionizer_Ion_types>
OM_OM_OM_OM_OM_OM

> <s_ionizer_Ion_ctrs_in>
3_4_18_19_22_23

> <r_ionizer_Ionization_penalty>
4.47534e-05

> <r_ionizer_Ionization_penalty_charging>
4.47534e-05

> <r_ionizer_Ionization_penalty_neutral>
0

> <s_st_Chirality_1>
4_R_2_5_6_19

> <s_st_Chirality_2>
5_R_8_4_7_20

> <s_st_Chirality_3>
6_S_10_4_9_21

> <s_st_Chirality_4>
7_S_12_5_11_22

> <s_st_Chirality_5>
9_R_14_6_11_23

> <s_st_Chirality_6>
11_R_15_9_7_25

> <i_mmod_Serial_Number-OPLS-2005>
431

> <i_i_glide_lignum>
427

> <r_i_docking_score>
-5.43606

> <r_i_glide_gscore>
-5.43606

> <r_i_glide_lipo>
-0.547929

> <r_i_glide_hbond>
-1.25125

> <r_i_glide_metal>
0

> <r_i_glide_eburp>
-0.651129

> <r_i_glide_evdw>
-17.0442

> <r_i_glide_ecoul>
-8.69533

> <r_i_glide_erotb>
0.394656

> <r_i_glide_esite>
-1.14733

> <r_i_glide_emodel>
-64.7785

> <r_i_glide_energy>
-25.7395

> <r_i_glide_einternal>
12.6563

> <i_i_glide_confnum>
3

> <i_i_glide_posenum>
677

$$$$
C05235
                    3D
 Structure written by MMmdl.
 11 10  0  0  1  0            999 V2000
    4.9050    1.2556    4.7039 C   0  0  0  0  0  0
    6.0876    0.6178    5.4383 C   0  0  0  0  0  0
    3.7912    0.3161    4.2599 C   0  0  0  0  0  0
    4.8395    2.4633    4.4748 O   0  0  0  0  0  0
    5.7016    0.1012    6.6971 O   0  0  0  0  0  0
    6.5003   -0.1862    4.8287 H   0  0  0  0  0  0
    6.8706    1.3633    5.5782 H   0  0  0  0  0  0
    3.0032    0.8704    3.7496 H   0  0  0  0  0  0
    4.1821   -0.4375    3.5761 H   0  0  0  0  0  0
    3.3559   -0.1888    5.1222 H   0  0  0  0  0  0
    5.3016   -0.7450    6.5675 H   0  0  0  0  0  0
  1  2  1  0  0  0
  1  3  1  0  0  0
  1  4  2  0  0  0
  2  5  1  0  0  0
  2  6  1  0  0  0
  2  7  1  0  0  0
  3  8  1  0  0  0
  3  9  1  0  0  0
  3 10  1  0  0  0
  5 11  1  0  0  0
M  END
> <i_ionizer_Ion_state_n>
0

> <i_ionizer_Tot_Q>
0

> <s_ionizer_Ion_centers>


> <s_ionizer_Ion_types>


> <s_ionizer_Ion_ctrs_in>


> <r_ionizer_Ionization_penalty>
0

> <r_ionizer_Ionization_penalty_charging>
0

> <r_ionizer_Ionization_penalty_neutral>
0

> <i_mmod_Serial_Number-OPLS-2005>
643

> <i_i_glide_lignum>
636

> <r_i_docking_score>
-5.43466

> <r_i_glide_gscore>
-5.43466

> <r_i_glide_lipo>
-0.218307

> <r_i_glide_hbond>
-0.9

> <r_i_glide_metal>
0

> <r_i_glide_eburp>
-2.5

> <r_i_glide_evdw>
-9.62259

> <r_i_glide_ecoul>
-8.25959

> <r_i_glide_erotb>
0

> <r_i_glide_esite>
-0.220587

> <r_i_glide_emodel>
-21.6816

> <r_i_glide_energy>
-17.8822

> <r_i_glide_einternal>
0.454621

> <i_i_glide_confnum>
1

> <i_i_glide_posenum>
237

$$$$
C02576
                    3D
 Structure written by MMmdl.
 25 25  0  0  1  0            999 V2000
    2.7985    0.6500    2.7409 C   0  0  2  0  0  0
    2.6130   -0.3002    1.5368 C   0  0  0  0  0  0
    4.1392    0.3587    3.4552 C   0  0  0  0  0  0
    1.6274    0.6562    3.7263 C   0  0  0  0  0  0
    3.7484   -0.1393    0.5104 C   0  0  0  0  0  0
    5.2849    0.1000    2.4918 C   0  0  0  0  0  0
    1.2978   -0.6858    4.3549 C   0  0  0  0  0  0
    0.9194    1.7548    4.0459 C   0  0  0  0  0  0
    5.1172   -0.1194    1.1732 C   0  0  0  0  0  0
    6.2777   -0.3682    0.3002 C   0  0  0  0  0  0
    7.4496   -0.3387    0.6749 O   0  0  0  0  0  0
    2.8510    1.6605    2.3323 H   0  0  0  0  0  0
    2.5918   -1.3342    1.8844 H   0  0  0  0  0  0
    1.6581   -0.1145    1.0434 H   0  0  0  0  0  0
    4.4150    1.1964    4.0958 H   0  0  0  0  0  0
    4.0436   -0.5159    4.0997 H   0  0  0  0  0  0
    3.6939   -0.9477   -0.2203 H   0  0  0  0  0  0
    3.6227    0.7941   -0.0397 H   0  0  0  0  0  0
    6.2740    0.0840    2.9271 H   0  0  0  0  0  0
    0.5068   -0.5922    5.0999 H   0  0  0  0  0  0
    0.9606   -1.3954    3.5998 H   0  0  0  0  0  0
    2.1768   -1.0999    4.8493 H   0  0  0  0  0  0
    0.1040    1.7007    4.7522 H   0  0  0  0  0  0
    1.1314    2.7219    3.6161 H   0  0  0  0  0  0
    6.0264   -0.5880   -0.7376 H   0  0  0  0  0  0
  1  2  1  0  0  0
  1  3  1  0  0  0
  1  4  1  0  0  0
  1 12  1  0  0  0
  2  5  1  0  0  0
  2 13  1  0  0  0
  2 14  1  0  0  0
  3  6  1  0  0  0
  3 15  1  0  0  0
  3 16  1  0  0  0
  4  7  1  0  0  0
  4  8  2  0  0  0
  5  9  1  0  0  0
  5 17  1  0  0  0
  5 18  1  0  0  0
  6  9  2  0  0  0
  6 19  1  0  0  0
  7 20  1  0  0  0
  7 21  1  0  0  0
  7 22  1  0  0  0
  8 23  1  0  0  0
  8 24  1  0  0  0
  9 10  1  0  0  0
 10 11  2  0  0  0
 10 25  1  0  0  0
M  END
> <i_ionizer_Ion_state_n>
0

> <i_ionizer_Tot_Q>
0

> <s_ionizer_Ion_centers>


> <s_ionizer_Ion_types>


> <s_ionizer_Ion_ctrs_in>


> <r_ionizer_Ionization_penalty>
0

> <r_ionizer_Ionization_penalty_charging>
0

> <r_ionizer_Ionization_penalty_neutral>
0

> <s_st_Chirality_1>
1_R_4_3_2_12

> <s_st_EZ_1>
3_6_9_10_E

> <i_mmod_Serial_Number-OPLS-2005>
499

> <i_i_glide_lignum>
494

> <r_i_docking_score>
-5.42493

> <r_i_glide_gscore>
-5.42493

> <r_i_glide_lipo>
-0.898423

> <r_i_glide_hbond>
0

> <r_i_glide_metal>
0

> <r_i_glide_eburp>
-2.5

> <r_i_glide_evdw>
-22.4585

> <r_i_glide_ecoul>
-0.574303

> <r_i_glide_erotb>
0.744898

> <r_i_glide_esite>
-0.917293

> <r_i_glide_emodel>
-27.5687

> <r_i_glide_energy>
-23.0328

> <r_i_glide_einternal>
1.78045

> <i_i_glide_confnum>
2

> <i_i_glide_posenum>
514

$$$$
C07733
                    3D
 Structure written by MMmdl.
 26 27  0  0  1  0            999 V2000
    2.9541    2.7136    3.0184 C   0  0  0  0  0  0
    2.9353    4.0022    2.5467 O   0  0  0  0  0  0
    3.9678    2.2667    3.8980 C   0  0  0  0  0  0
    1.9267    1.8287    2.6321 C   0  0  0  0  0  0
    1.7175    4.5465    2.2176 C   0  0  0  0  0  0
    3.9557    0.9370    4.3708 C   0  0  0  0  0  0
    4.9625    3.1106    4.3022 O   0  0  0  0  0  0
    1.9162    0.5024    3.1045 C   0  0  0  0  0  0
    1.6704    5.7076    1.4147 C   0  0  0  0  0  0
    0.5121    3.9775    2.6879 C   0  0  0  0  0  0
    2.9311    0.0558    3.9720 C   0  0  0  0  0  0
    4.9355    0.5008    5.2175 O   0  0  0  0  0  0
    0.4295    6.2819    1.0729 C   0  0  0  0  0  0
    2.8255    6.2802    0.9645 O   0  0  0  0  0  0
   -0.7265    4.5532    2.3454 C   0  0  0  0  0  0
   -0.7681    5.7044    1.5363 C   0  0  0  0  0  0
    1.1463    2.1688    1.9673 H   0  0  0  0  0  0
    4.8472    3.9767    3.9408 H   0  0  0  0  0  0
    1.1288   -0.1721    2.8018 H   0  0  0  0  0  0
    0.5332    3.0971    3.3128 H   0  0  0  0  0  0
    2.9173   -0.9628    4.3312 H   0  0  0  0  0  0
    4.8638   -0.4179    5.4266 H   0  0  0  0  0  0
    0.3911    7.1677    0.4560 H   0  0  0  0  0  0
    3.5932    5.7590    1.1407 H   0  0  0  0  0  0
   -1.6446    4.1121    2.7049 H   0  0  0  0  0  0
   -1.7181    6.1462    1.2738 H   0  0  0  0  0  0
  1  2  1  0  0  0
  1  3  2  0  0  0
  1  4  1  0  0  0
  2  5  1  0  0  0
  3  6  1  0  0  0
  3  7  1  0  0  0
  4  8  2  0  0  0
  4 17  1  0  0  0
  5  9  2  0  0  0
  5 10  1  0  0  0
  6 11  2  0  0  0
  6 12  1  0  0  0
  7 18  1  0  0  0
  8 11  1  0  0  0
  8 19  1  0  0  0
  9 13  1  0  0  0
  9 14  1  0  0  0
 10 15  2  0  0  0
 10 20  1  0  0  0
 11 21  1  0  0  0
 12 22  1  0  0  0
 13 16  2  0  0  0
 13 23  1  0  0  0
 14 24  1  0  0  0
 15 16  1  0  0  0
 15 25  1  0  0  0
 16 26  1  0  0  0
M  END
> <i_ionizer_Ion_state_n>
0

> <i_ionizer_Tot_Q>
0

> <s_ionizer_Ion_centers>


> <s_ionizer_Ion_types>


> <s_ionizer_Ion_ctrs_in>


> <r_ionizer_Ionization_penalty>
0.00177657

> <r_ionizer_Ionization_penalty_charging>
0

> <r_ionizer_Ionization_penalty_neutral>
0.00177657

> <i_mmod_Serial_Number-OPLS-2005>
908

> <i_i_glide_lignum>
896

> <r_i_docking_score>
-5.41672

> <r_i_glide_gscore>
-5.41672

> <r_i_glide_lipo>
-1.12701

> <r_i_glide_hbond>
-0.45

> <r_i_glide_metal>
0

> <r_i_glide_eburp>
-2.13476

> <r_i_glide_evdw>
-26.264

> <r_i_glide_ecoul>
-5.12271

> <r_i_glide_erotb>
0.806484

> <r_i_glide_esite>
0.101961

> <r_i_glide_emodel>
-39.8684

> <r_i_glide_energy>
-31.3867

> <r_i_glide_einternal>
0.811302

> <i_i_glide_confnum>
1

> <i_i_glide_posenum>
656

$$$$
C04063
                    3D
 Structure written by MMmdl.
 30 30  0  0  1  0            999 V2000
    1.1725   -0.4917    3.2708 P   0  0  0  0  0  0
    1.5151    1.2220    3.6913 O   0  0  0  0  0  0
    2.5540   -0.9847    2.7833 O   0  0  0  0  0  0
    1.5938    2.1825    2.6373 C   0  0  2  0  0  0
    3.1078    2.4833    2.5156 C   0  0  2  0  0  0
    0.8032    3.4661    3.0452 C   0  0  1  0  0  0
    3.4197    3.6903    1.6024 C   0  0  2  0  0  0
    3.9580    1.3463    2.3371 O   0  0  0  0  0  0
    1.2262    4.7674    2.3079 C   0  0  2  0  0  0
   -0.5660    3.2790    2.7443 O   0  0  0  0  0  0
    2.7602    4.9379    2.2163 C   0  0  2  0  0  0
    2.8822    3.5364    0.3004 O   0  0  0  0  0  0
    4.1976    0.5987    0.7171 P   0  0  0  0  0  0
    0.7152    5.8755    3.0299 O   0  0  0  0  0  0
    3.1052    6.0777    1.4468 O   0  0  0  0  0  0
    2.7388    0.3057    0.2998 O   0  0  0  0  0  0
    1.2201    1.7746    1.6986 H   0  0  0  0  0  0
    3.4115    2.8003    3.5143 H   0  0  0  0  0  0
    0.9188    3.6132    4.1202 H   0  0  0  0  0  0
    4.4989    3.8322    1.5339 H   0  0  0  0  0  0
    0.7960    4.7766    1.3047 H   0  0  0  0  0  0
   -0.6338    3.1978    1.7979 H   0  0  0  0  0  0
    3.1679    5.0927    3.2167 H   0  0  0  0  0  0
    3.3907    4.0705   -0.2891 H   0  0  0  0  0  0
    1.2555    6.0057    3.7931 H   0  0  0  0  0  0
    4.0448    6.0984    1.3542 H   0  0  0  0  0  0
    0.6878   -1.0962    4.6061 O   0  5  0  0  0  0
    0.0995   -0.3389    2.1702 O   0  5  0  0  0  0
    4.9073    1.6999   -0.0998 O   0  5  0  0  0  0
    5.0352   -0.6563    1.0561 O   0  5  0  0  0  0
  1  2  1  0  0  0
  1  3  2  0  0  0
  1 27  1  0  0  0
  1 28  1  0  0  0
  2  4  1  0  0  0
  4  5  1  0  0  0
  4  6  1  0  0  0
  4 17  1  0  0  0
  5  7  1  0  0  0
  5  8  1  0  0  0
  5 18  1  0  0  0
  6  9  1  0  0  0
  6 10  1  0  0  0
  6 19  1  0  0  0
  7 11  1  0  0  0
  7 12  1  0  0  0
  7 20  1  0  0  0
  8 13  1  0  0  0
  9 14  1  0  0  0
  9 11  1  0  0  0
  9 21  1  0  0  0
 10 22  1  0  0  0
 11 15  1  0  0  0
 11 23  1  0  0  0
 12 24  1  0  0  0
 13 16  2  0  0  0
 13 29  1  0  0  0
 13 30  1  0  0  0
 14 25  1  0  0  0
 15 26  1  0  0  0
M  CHG  4  27  -1  28  -1  29  -1  30  -1
M  END
> <i_ionizer_Ion_state_n>
15

> <i_ionizer_Tot_Q>
-4

> <s_ionizer_Ion_centers>
27_28_29_30

> <s_ionizer_Ion_types>
OM_OM_OM_OM

> <s_ionizer_Ion_ctrs_in>
3_4_18_19

> <r_ionizer_Ionization_penalty>
2.98356e-05

> <r_ionizer_Ionization_penalty_charging>
2.98356e-05

> <r_ionizer_Ionization_penalty_neutral>
0

> <s_st_Chirality_1>
4_S_2_5_6_17

> <s_st_Chirality_2>
5_S_8_4_7_18

> <s_st_Chirality_3>
6_R_10_4_9_19

> <s_st_Chirality_4>
7_S_12_5_11_20

> <s_st_Chirality_5>
9_S_14_6_11_21

> <s_st_Chirality_6>
11_S_15_7_9_23

> <i_mmod_Serial_Number-OPLS-2005>
580

> <i_i_glide_lignum>
574

> <r_i_docking_score>
-5.41511

> <r_i_glide_gscore>
-5.41511

> <r_i_glide_lipo>
-0.499253

> <r_i_glide_hbond>
-0.797543

> <r_i_glide_metal>
0

> <r_i_glide_eburp>
-1.24177

> <r_i_glide_evdw>
-24.3628

> <r_i_glide_ecoul>
-5.93706

> <r_i_glide_erotb>
0.382088

> <r_i_glide_esite>
-0.715906

> <r_i_glide_emodel>
-60.0517

> <r_i_glide_energy>
-30.2999

> <r_i_glide_einternal>
3.74334

> <i_i_glide_confnum>
4

> <i_i_glide_posenum>
5

$$$$
C06010
                    3D
 Structure written by MMmdl.
 16 15  0  0  1  0            999 V2000
    1.6997    2.1090    2.8890 C   0  0  2  0  0  0
    0.9569    0.7556    2.8633 C   0  0  0  0  0  0
    0.6773    3.2285    3.1889 C   0  0  0  0  0  0
    2.4323    2.3584    1.5556 C   0  0  0  0  0  0
    2.6960    2.0992    3.8993 O   0  0  0  0  0  0
    1.2943   -0.2752    3.9407 C   0  0  0  0  0  0
    0.1009    0.4953    2.0162 O   0  0  0  0  0  0
    0.1001    3.2084    4.2997 O   0  0  0  0  0  0
    2.9592    3.3129    1.5702 H   0  0  0  0  0  0
    3.1678    1.5775    1.3602 H   0  0  0  0  0  0
    1.7410    2.3795    0.7124 H   0  0  0  0  0  0
    3.2891    1.3875    3.7159 H   0  0  0  0  0  0
    0.8820    0.0328    4.9013 H   0  0  0  0  0  0
    0.8716   -1.2461    3.6818 H   0  0  0  0  0  0
    2.3727   -0.3909    4.0469 H   0  0  0  0  0  0
    0.4828    4.0956    2.3071 O   0  5  0  0  0  0
  1  2  1  0  0  0
  1  3  1  0  0  0
  1  4  1  0  0  0
  1  5  1  0  0  0
  2  6  1  0  0  0
  2  7  2  0  0  0
  3  8  2  0  0  0
  3 16  1  0  0  0
  4  9  1  0  0  0
  4 10  1  0  0  0
  4 11  1  0  0  0
  5 12  1  0  0  0
  6 13  1  0  0  0
  6 14  1  0  0  0
  6 15  1  0  0  0
M  CHG  1  16  -1
M  END
> <i_ionizer_Ion_state_n>
1

> <i_ionizer_Tot_Q>
-1

> <s_ionizer_Ion_centers>
16

> <s_ionizer_Ion_types>
OM

> <s_ionizer_Ion_ctrs_in>
8

> <r_ionizer_Ionization_penalty>
0.00059219

> <r_ionizer_Ionization_penalty_charging>
0.00059219

> <r_ionizer_Ionization_penalty_neutral>
0

> <s_st_Chirality_1>
1_S_5_3_2_4

> <i_mmod_Serial_Number-OPLS-2005>
850

> <i_i_glide_lignum>
838

> <r_i_docking_score>
-5.41371

> <r_i_glide_gscore>
-5.41371

> <r_i_glide_lipo>
-0.273649

> <r_i_glide_hbond>
-0.7

> <r_i_glide_metal>
0

> <r_i_glide_eburp>
-2.5

> <r_i_glide_evdw>
-14.2517

> <r_i_glide_ecoul>
-5.20904

> <r_i_glide_erotb>
0

> <r_i_glide_esite>
-0.279019

> <r_i_glide_emodel>
-37.0865

> <r_i_glide_energy>
-19.4607

> <r_i_glide_einternal>
1.01669

> <i_i_glide_confnum>
1

> <i_i_glide_posenum>
338

$$$$
C00942
                    3D
 Structure written by MMmdl.
 34 37  0  0  1  0            999 V2000
   -0.1135    6.5619    2.0223 C   0  0  0  0  0  0
    0.8834    5.6119    1.9663 N   0  0  0  0  0  0
   -0.1486    7.1662    0.7813 C   0  0  0  0  0  0
   -0.9145    6.8473    3.0948 N   0  0  0  0  0  0
    1.2837    4.6954    3.0747 C   0  0  1  0  0  0
    1.3862    5.6988    0.6894 C   0  0  0  0  0  0
    0.8129    6.6049   -0.0525 N   0  0  0  0  0  0
   -1.0999    8.2120    0.5308 C   0  0  0  0  0  0
   -1.7909    7.8081    2.8648 C   0  0  0  0  0  0
    0.4405    3.4027    3.0037 C   0  0  1  0  0  0
    2.6308    4.3475    2.8685 O   0  0  0  0  0  0
   -1.9003    8.4775    1.6486 N   0  0  0  0  0  0
   -1.2718    8.8572   -0.5011 O   0  0  0  0  0  0
   -2.6313    8.1757    3.8398 N   0  0  0  0  0  0
    1.4295    2.4846    2.3200 C   0  0  1  0  0  0
    0.1008    2.9459    4.2992 O   0  0  0  0  0  0
    2.7485    2.9324    2.9234 C   0  0  1  0  0  0
    1.2620    1.0962    2.4887 O   0  0  0  0  0  0
    3.9536    2.3265    2.1917 C   0  0  0  0  0  0
    2.4540    0.0888    1.8156 P   0  0  0  0  0  0
    3.8575    0.9156    2.3312 O   0  0  0  0  0  0
    2.3694    0.1764    0.3411 O   0  0  0  0  0  0
    1.1452    5.2771    3.9872 H   0  0  0  0  0  0
    2.1876    5.0722    0.3248 H   0  0  0  0  0  0
   -0.4721    3.5497    2.4242 H   0  0  0  0  0  0
   -2.5936    9.2026    1.5430 H   0  0  0  0  0  0
   -2.5830    7.7098    4.7345 H   0  0  0  0  0  0
   -3.3106    8.9069    3.6894 H   0  0  0  0  0  0
    1.4267    2.7006    1.2497 H   0  0  0  0  0  0
   -0.0357    2.0116    4.2600 H   0  0  0  0  0  0
    2.7945    2.6404    3.9744 H   0  0  0  0  0  0
    3.9544    2.5971    1.1352 H   0  0  0  0  0  0
    4.8898    2.6751    2.6273 H   0  0  0  0  0  0
    2.4021   -1.2246    2.4933 O   0  5  0  0  0  0
  1  2  1  0  0  0
  1  3  2  0  0  0
  1  4  1  0  0  0
  2  5  1  0  0  0
  2  6  1  0  0  0
  3  7  1  0  0  0
  3  8  1  0  0  0
  4  9  2  0  0  0
  5 10  1  0  0  0
  5 11  1  0  0  0
  5 23  1  0  0  0
  6  7  2  0  0  0
  6 24  1  0  0  0
  8 12  1  0  0  0
  8 13  2  0  0  0
  9 14  1  0  0  0
  9 12  1  0  0  0
 10 15  1  0  0  0
 10 16  1  0  0  0
 10 25  1  0  0  0
 11 17  1  0  0  0
 12 26  1  0  0  0
 14 27  1  0  0  0
 14 28  1  0  0  0
 15 18  1  0  0  0
 15 17  1  0  0  0
 15 29  1  0  0  0
 16 30  1  0  0  0
 17 19  1  0  0  0
 17 31  1  0  0  0
 18 20  1  0  0  0
 19 21  1  0  0  0
 19 32  1  0  0  0
 19 33  1  0  0  0
 20 22  2  0  0  0
 20 21  1  0  0  0
 20 34  1  0  0  0
M  CHG  1  34  -1
M  END
> <i_ionizer_Ion_state_n>
2

> <i_ionizer_Tot_Q>
-1

> <s_ionizer_Ion_centers>
34

> <s_ionizer_Ion_types>
OM

> <s_ionizer_Ion_ctrs_in>
22

> <r_ionizer_Ionization_penalty>
2.61947e-05

> <r_ionizer_Ionization_penalty_charging>
7.45891e-06

> <r_ionizer_Ionization_penalty_neutral>
1.87357e-05

> <s_st_Chirality_1>
5_R_11_2_10_23

> <s_st_Chirality_2>
10_R_16_5_15_25

> <s_st_Chirality_3>
15_R_18_10_17_29

> <s_st_Chirality_4>
17_R_11_15_19_31

> <i_mmod_Serial_Number-OPLS-2005>
361

> <i_i_glide_lignum>
357

> <r_i_docking_score>
-5.40852

> <r_i_glide_gscore>
-5.40852

> <r_i_glide_lipo>
-0.537127

> <r_i_glide_hbond>
-1.11782

> <r_i_glide_metal>
0

> <r_i_glide_eburp>
-1.18029

> <r_i_glide_evdw>
-32.7923

> <r_i_glide_ecoul>
-5.56545

> <r_i_glide_erotb>
0.183132

> <r_i_glide_esite>
0.423506

> <r_i_glide_emodel>
-67.4932

> <r_i_glide_energy>
-38.3578

> <r_i_glide_einternal>
1.81615

> <i_i_glide_confnum>
1

> <i_i_glide_posenum>
528

$$$$
C05956
                    3D
 Structure written by MMmdl.
 57 58  0  0  1  0            999 V2000
    2.4784    1.4096    3.5665 C   0  0  2  0  0  0
    2.7052    0.5572    2.2975 C   0  0  2  0  0  0
    1.0112    1.1021    3.9193 C   0  0  1  0  0  0
    2.7190    2.8889    3.3253 C   0  0  0  0  0  0
    1.3748   -0.2115    2.1709 C   0  0  2  0  0  0
    3.9640   -0.3273    2.3565 C   0  0  0  0  0  0
    0.3364    0.8138    2.5886 C   0  0  0  0  0  0
    1.0116   -0.2075    4.4583 O   0  0  0  0  0  0
    2.1596    3.5943    2.3271 C   0  0  0  0  0  0
    1.2751   -1.1019    3.2700 O   0  0  0  0  0  0
    3.9296   -1.4542    1.3392 C   0  0  0  0  0  0
    2.3743    5.0740    2.0558 C   0  0  2  0  0  0
    4.5786   -1.5042    0.1612 C   0  0  0  0  0  0
    1.4751    5.5354    0.8893 C   0  0  0  0  0  0
    3.7430    5.3338    1.7659 O   0  0  0  0  0  0
    5.4731   -0.4345   -0.4388 C   0  0  0  0  0  0
    1.5622    7.0353    0.5622 C   0  0  0  0  0  0
    4.5005    5.2972    3.0092 O   0  0  0  0  0  0
    6.4222   -1.0105   -1.4983 C   0  0  0  0  0  0
    0.6842    7.4289   -0.6348 C   0  0  0  0  0  0
    7.8181   -1.3253   -0.9246 C   0  0  0  0  0  0
   -0.8133    7.2346   -0.3564 C   0  0  0  0  0  0
    8.4376   -0.1503   -0.1567 C   0  0  0  0  0  0
   -1.3795    8.3004    0.5884 C   0  0  0  0  0  0
    9.5659   -0.2986    0.3640 O   0  0  0  0  0  0
    3.1218    1.0785    4.3837 H   0  0  0  0  0  0
    2.7944    1.2145    1.4303 H   0  0  0  0  0  0
    0.5198    1.8329    4.5624 H   0  0  0  0  0  0
    3.3879    3.3760    4.0196 H   0  0  0  0  0  0
    1.2056   -0.6867    1.2045 H   0  0  0  0  0  0
    4.8503    0.2893    2.2176 H   0  0  0  0  0  0
    4.0716   -0.7707    3.3469 H   0  0  0  0  0  0
   -0.6647    0.3931    2.6965 H   0  0  0  0  0  0
    0.2969    1.6804    1.9273 H   0  0  0  0  0  0
    1.4917    3.0901    1.6436 H   0  0  0  0  0  0
    3.3113   -2.2969    1.6125 H   0  0  0  0  0  0
    2.0792    5.5848    2.9747 H   0  0  0  0  0  0
    4.4632   -2.3923   -0.4430 H   0  0  0  0  0  0
    1.7088    4.9524   -0.0025 H   0  0  0  0  0  0
    0.4383    5.3039    1.1372 H   0  0  0  0  0  0
    4.8297    0.3202   -0.8921 H   0  0  0  0  0  0
    6.0422    0.0835    0.3312 H   0  0  0  0  0  0
    1.2655    7.6161    1.4364 H   0  0  0  0  0  0
    2.5958    7.3043    0.3446 H   0  0  0  0  0  0
    5.3145    5.6912    2.7343 H   0  0  0  0  0  0
    5.9827   -1.9181   -1.9154 H   0  0  0  0  0  0
    6.5139   -0.3016   -2.3229 H   0  0  0  0  0  0
    0.8723    8.4714   -0.8947 H   0  0  0  0  0  0
    0.9700    6.8372   -1.5053 H   0  0  0  0  0  0
    7.7592   -2.1812   -0.2516 H   0  0  0  0  0  0
    8.4974   -1.6035   -1.7310 H   0  0  0  0  0  0
   -1.3663    7.2579   -1.2960 H   0  0  0  0  0  0
   -0.9804    6.2472    0.0755 H   0  0  0  0  0  0
   -2.4424    8.1361    0.7666 H   0  0  0  0  0  0
   -0.8734    8.2799    1.5539 H   0  0  0  0  0  0
   -1.2633    9.3002    0.1693 H   0  0  0  0  0  0
    7.7551    0.8958   -0.1053 O   0  5  0  0  0  0
  1  2  1  0  0  0
  1  3  1  0  0  0
  1  4  1  0  0  0
  1 26  1  0  0  0
  2  5  1  0  0  0
  2  6  1  0  0  0
  2 27  1  0  0  0
  3  7  1  0  0  0
  3  8  1  0  0  0
  3 28  1  0  0  0
  4  9  2  0  0  0
  4 29  1  0  0  0
  5 10  1  0  0  0
  5  7  1  0  0  0
  5 30  1  0  0  0
  6 11  1  0  0  0
  6 31  1  0  0  0
  6 32  1  0  0  0
  7 33  1  0  0  0
  7 34  1  0  0  0
  8 10  1  0  0  0
  9 12  1  0  0  0
  9 35  1  0  0  0
 11 13  2  0  0  0
 11 36  1  0  0  0
 12 14  1  0  0  0
 12 15  1  0  0  0
 12 37  1  0  0  0
 13 16  1  0  0  0
 13 38  1  0  0  0
 14 17  1  0  0  0
 14 39  1  0  0  0
 14 40  1  0  0  0
 15 18  1  0  0  0
 16 19  1  0  0  0
 16 41  1  0  0  0
 16 42  1  0  0  0
 17 20  1  0  0  0
 17 43  1  0  0  0
 17 44  1  0  0  0
 18 45  1  0  0  0
 19 21  1  0  0  0
 19 46  1  0  0  0
 19 47  1  0  0  0
 20 22  1  0  0  0
 20 48  1  0  0  0
 20 49  1  0  0  0
 21 23  1  0  0  0
 21 50  1  0  0  0
 21 51  1  0  0  0
 22 24  1  0  0  0
 22 52  1  0  0  0
 22 53  1  0  0  0
 23 25  2  0  0  0
 23 57  1  0  0  0
 24 54  1  0  0  0
 24 55  1  0  0  0
 24 56  1  0  0  0
M  CHG  1  57  -1
M  END
> <i_ionizer_Ion_state_n>
1

> <i_ionizer_Tot_Q>
-1

> <s_ionizer_Ion_centers>
57

> <s_ionizer_Ion_types>
OM

> <s_ionizer_Ion_ctrs_in>
25

> <r_ionizer_Ionization_penalty>
0.00059219

> <r_ionizer_Ionization_penalty_charging>
0.00059219

> <r_ionizer_Ionization_penalty_neutral>
0

> <s_st_Chirality_1>
1_R_3_2_4_26

> <s_st_Chirality_2>
2_R_5_1_6_27

> <s_st_Chirality_3>
3_R_8_1_7_28

> <s_st_Chirality_4>
5_S_10_2_7_30

> <s_st_Chirality_5>
12_S_15_9_14_37

> <s_st_EZ_1>
1_4_9_12_E

> <s_st_EZ_2>
6_11_13_16_Z

> <i_mmod_Serial_Number-OPLS-2005>
836

> <i_i_glide_lignum>
824

> <r_i_docking_score>
-5.40066

> <r_i_glide_gscore>
-5.40066

> <r_i_glide_lipo>
-1.78092

> <r_i_glide_hbond>
-0.348372

> <r_i_glide_metal>
0

> <r_i_glide_eburp>
-1.00404

> <r_i_glide_evdw>
-34.0477

> <r_i_glide_ecoul>
-2.7195

> <r_i_glide_erotb>
1.79301

> <r_i_glide_esite>
-1.06457

> <r_i_glide_emodel>
-55.4473

> <r_i_glide_energy>
-36.7672

> <r_i_glide_einternal>
15.6486

> <i_i_glide_confnum>
342

> <i_i_glide_posenum>
694

$$$$
C00719
                    3D
 Structure written by MMmdl.
 19 18  0  0  1  0            999 V2000
    1.7201    0.1938    3.4607 N   0  3  0  0  0  0
    0.8169    1.2412    2.8774 C   0  0  0  0  0  0
    0.8842   -0.7108    4.2933 C   0  0  0  0  0  0
    2.3709   -0.6244    2.4009 C   0  0  0  0  0  0
    2.7647    0.7929    4.3360 C   0  0  0  0  0  0
    1.0660    2.6748    3.3805 C   0  0  0  0  0  0
    2.2111    3.1504    3.2169 O   0  0  0  0  0  0
    0.9102    1.2379    1.7894 H   0  0  0  0  0  0
   -0.2234    0.9809    3.0832 H   0  0  0  0  0  0
    1.4823   -1.5009    4.7502 H   0  0  0  0  0  0
    0.3923   -0.1645    5.0997 H   0  0  0  0  0  0
    0.1069   -1.1917    3.6972 H   0  0  0  0  0  0
    2.9276   -1.4571    2.8333 H   0  0  0  0  0  0
    1.6315   -1.0406    1.7151 H   0  0  0  0  0  0
    3.0807   -0.0415    1.8129 H   0  0  0  0  0  0
    3.3379    0.0197    4.8497 H   0  0  0  0  0  0
    3.4787    1.3912    3.7691 H   0  0  0  0  0  0
    2.3196    1.4360    5.0967 H   0  0  0  0  0  0
    0.1008    3.2777    3.8992 O   0  5  0  0  0  0
  1  2  1  0  0  0
  1  3  1  0  0  0
  1  4  1  0  0  0
  1  5  1  0  0  0
  2  6  1  0  0  0
  2  8  1  0  0  0
  2  9  1  0  0  0
  3 10  1  0  0  0
  3 11  1  0  0  0
  3 12  1  0  0  0
  4 13  1  0  0  0
  4 14  1  0  0  0
  4 15  1  0  0  0
  5 16  1  0  0  0
  5 17  1  0  0  0
  5 18  1  0  0  0
  6  7  2  0  0  0
  6 19  1  0  0  0
M  CHG  2   1   1  19  -1
M  END
> <i_ionizer_Ion_state_n>
1

> <i_ionizer_Tot_Q>
0

> <s_ionizer_Ion_centers>
19

> <s_ionizer_Ion_types>
OM

> <s_ionizer_Ion_ctrs_in>
8

> <r_ionizer_Ionization_penalty>
0.00059219

> <r_ionizer_Ionization_penalty_charging>
0.00059219

> <r_ionizer_Ionization_penalty_neutral>
0

> <i_mmod_Serial_Number-OPLS-2005>
326

> <i_i_glide_lignum>
323

> <r_i_docking_score>
-5.39562

> <r_i_glide_gscore>
-5.39562

> <r_i_glide_lipo>
-0.35966

> <r_i_glide_hbond>
-0.7

> <r_i_glide_metal>
0

> <r_i_glide_eburp>
-2.5

> <r_i_glide_evdw>
-10.9921

> <r_i_glide_ecoul>
-2.31157

> <r_i_glide_erotb>
0

> <r_i_glide_esite>
-0.725432

> <r_i_glide_emodel>
-28.7844

> <r_i_glide_energy>
-13.3037

> <r_i_glide_einternal>
0.824147

> <i_i_glide_confnum>
1

> <i_i_glide_posenum>
358

$$$$
C00144
                    3D
 Structure written by MMmdl.
 36 38  0  0  1  0            999 V2000
    0.1024    5.5887    1.6024 C   0  0  0  0  0  0
    0.9973    4.6296    2.0254 N   0  0  0  0  0  0
   -1.1175    5.2605    2.1593 C   0  0  0  0  0  0
    0.3712    6.6593    0.7930 N   0  0  0  0  0  0
    2.4504    4.5772    1.6763 C   0  0  2  0  0  0
    0.2585    3.7794    2.8153 C   0  0  0  0  0  0
   -0.9988    4.1067    2.9266 N   0  0  0  0  0  0
   -2.2608    6.0883    1.8961 C   0  0  0  0  0  0
   -0.6794    7.4221    0.5514 C   0  0  0  0  0  0
    2.7139    3.3138    1.1380 O   0  0  0  0  0  0
    3.2828    4.7169    2.9546 C   0  0  1  0  0  0
   -1.9490    7.1717    1.0655 N   0  0  0  0  0  0
   -3.4132    5.9508    2.3006 O   0  0  0  0  0  0
   -0.5401    8.5014   -0.2282 N   0  0  0  0  0  0
    3.5706    2.5592    1.9958 C   0  0  1  0  0  0
    3.4864    3.2639    3.3520 C   0  0  1  0  0  0
    4.5018    5.3888    2.6993 O   0  0  0  0  0  0
    3.1442    1.0816    1.9756 C   0  0  0  0  0  0
    4.6355    3.0924    4.1580 O   0  0  0  0  0  0
    1.7316    0.9655    1.9428 O   0  0  0  0  0  0
    1.0414   -0.3937    2.8824 P   0  0  0  0  0  0
    2.1251   -1.4814    2.7145 O   0  0  0  0  0  0
    2.5909    5.3767    0.9476 H   0  0  0  0  0  0
    0.6754    2.9119    3.3063 H   0  0  0  0  0  0
    2.7424    5.2759    3.7201 H   0  0  0  0  0  0
   -2.7073    7.7973    0.8393 H   0  0  0  0  0  0
    0.3672    8.7149   -0.6170 H   0  0  0  0  0  0
   -1.3271    9.1008   -0.4279 H   0  0  0  0  0  0
    4.5763    2.6607    1.5843 H   0  0  0  0  0  0
    2.6099    2.9151    3.8999 H   0  0  0  0  0  0
    4.3109    6.0981    2.1025 H   0  0  0  0  0  0
    3.6274    0.5429    1.1600 H   0  0  0  0  0  0
    3.4700    0.5982    2.8965 H   0  0  0  0  0  0
    5.3773    3.4357    3.6631 H   0  0  0  0  0  0
    0.9131    0.2243    4.2924 O   0  5  0  0  0  0
   -0.2836   -0.6444    2.1307 O   0  5  0  0  0  0
  1  2  1  0  0  0
  1  3  2  0  0  0
  1  4  1  0  0  0
  2  5  1  0  0  0
  2  6  1  0  0  0
  3  7  1  0  0  0
  3  8  1  0  0  0
  4  9  2  0  0  0
  5 10  1  0  0  0
  5 11  1  0  0  0
  5 23  1  0  0  0
  6  7  2  0  0  0
  6 24  1  0  0  0
  8 12  1  0  0  0
  8 13  2  0  0  0
  9 14  1  0  0  0
  9 12  1  0  0  0
 10 15  1  0  0  0
 11 16  1  0  0  0
 11 17  1  0  0  0
 11 25  1  0  0  0
 12 26  1  0  0  0
 14 27  1  0  0  0
 14 28  1  0  0  0
 15 18  1  0  0  0
 15 16  1  0  0  0
 15 29  1  0  0  0
 16 19  1  0  0  0
 16 30  1  0  0  0
 17 31  1  0  0  0
 18 20  1  0  0  0
 18 32  1  0  0  0
 18 33  1  0  0  0
 19 34  1  0  0  0
 20 21  1  0  0  0
 21 22  2  0  0  0
 21 35  1  0  0  0
 21 36  1  0  0  0
M  CHG  2  35  -1  36  -1
M  END
> <i_ionizer_Ion_state_n>
6

> <i_ionizer_Tot_Q>
-2

> <s_ionizer_Ion_centers>
35_36

> <s_ionizer_Ion_types>
OM_OM

> <s_ionizer_Ion_ctrs_in>
22_23

> <r_ionizer_Ionization_penalty>
3.36536e-05

> <r_ionizer_Ionization_penalty_charging>
1.49178e-05

> <r_ionizer_Ionization_penalty_neutral>
1.87357e-05

> <s_st_Chirality_1>
5_R_10_2_11_23

> <s_st_Chirality_2>
11_R_17_5_16_25

> <s_st_Chirality_3>
15_R_10_16_18_29

> <s_st_Chirality_4>
16_R_19_11_15_30

> <i_mmod_Serial_Number-OPLS-2005>
105

> <i_i_glide_lignum>
103

> <r_i_docking_score>
-5.39127

> <r_i_glide_gscore>
-5.39127

> <r_i_glide_lipo>
-0.532102

> <r_i_glide_hbond>
-1.28097

> <r_i_glide_metal>
0

> <r_i_glide_eburp>
-1.05144

> <r_i_glide_evdw>
-23.8745

> <r_i_glide_ecoul>
-11.1769

> <r_i_glide_erotb>
0.504222

> <r_i_glide_esite>
-0.00332597

> <r_i_glide_emodel>
-73.4103

> <r_i_glide_energy>
-35.0515

> <r_i_glide_einternal>
5.58949

> <i_i_glide_confnum>
5

> <i_i_glide_posenum>
617

$$$$
C06017
                    3D
 Structure written by MMmdl.
 58 60  0  0  1  0            999 V2000
   -2.1903    9.8695    6.4274 C   0  0  2  0  0  0
   -1.4868   11.1678    6.0953 N   0  0  0  0  0  0
   -1.7792    8.8773    5.5336 O   0  0  0  0  0  0
   -3.7030   10.0287    6.2736 C   0  0  0  0  0  0
   -0.5828   11.7027    7.0347 C   0  0  0  0  0  0
   -1.7224   11.8549    4.9113 C   0  0  0  0  0  0
   -2.8754    8.4387    4.7292 C   0  0  1  0  0  0
   -3.9261    9.5504    4.8540 C   0  0  1  0  0  0
    0.0433   12.9010    6.7003 N   0  0  0  0  0  0
   -0.3419   11.1618    8.1130 O   0  0  0  0  0  0
   -1.1149   13.0244    4.5868 C   0  0  0  0  0  0
   -2.3829    8.1494    3.2960 C   0  0  0  0  0  0
   -5.2519    9.0908    4.6995 O   0  0  0  0  0  0
   -0.1546   13.6193    5.5196 C   0  0  0  0  0  0
   -1.3958   13.7522    3.2840 C   0  0  0  0  0  0
   -1.6511    6.9406    3.1824 O   0  0  0  0  0  0
    0.4608   14.6683    5.3376 O   0  0  0  0  0  0
   -1.1095    6.3278    1.6861 P   0  0  0  0  0  0
   -0.5835    4.7476    2.0413 O   0  0  0  0  0  0
   -2.2899    6.2276    0.7958 O   0  0  0  0  0  0
    0.7755    4.0984    2.8315 P   0  0  0  0  0  0
    0.8322    2.4808    2.2994 O   0  0  0  0  0  0
    1.9873    4.7867    2.3316 O   0  0  0  0  0  0
    1.9849    1.9287    1.6841 C   0  0  1  0  0  0
    3.1868    2.1817    2.4076 O   0  0  0  0  0  0
    1.8176    0.4037    1.5691 C   0  0  1  0  0  0
    3.1778    1.6993    3.7519 C   0  0  1  0  0  0
    1.7182   -0.2395    2.9610 C   0  0  2  0  0  0
    0.6976    0.0993    0.7614 O   0  0  0  0  0  0
    2.9635    0.1590    3.7778 C   0  0  2  0  0  0
    4.4796    2.1437    4.4404 C   0  0  0  0  0  0
    1.6999   -1.6477    2.8042 O   0  0  0  0  0  0
    2.8181   -0.2997    5.1116 O   0  0  0  0  0  0
    5.1451    1.2882    5.0677 O   0  0  0  0  0  0
   -1.8759    9.6023    7.4375 H   0  0  0  0  0  0
   -4.1876    9.3629    6.9896 H   0  0  0  0  0  0
   -4.0375   11.0500    6.4594 H   0  0  0  0  0  0
   -2.4287   11.4482    4.2038 H   0  0  0  0  0  0
   -3.2336    7.5271    5.2066 H   0  0  0  0  0  0
   -3.7273   10.3607    4.1517 H   0  0  0  0  0  0
    0.6930   13.2845    7.3703 H   0  0  0  0  0  0
   -3.2079    8.1459    2.5833 H   0  0  0  0  0  0
   -1.7115    8.9457    2.9742 H   0  0  0  0  0  0
   -5.8227    9.8448    4.5969 H   0  0  0  0  0  0
   -2.1238   13.2166    2.6742 H   0  0  0  0  0  0
   -1.7910   14.7488    3.4834 H   0  0  0  0  0  0
   -0.4795   13.8562    2.7020 H   0  0  0  0  0  0
    2.0928    2.3576    0.6872 H   0  0  0  0  0  0
    2.6936    0.0033    1.0561 H   0  0  0  0  0  0
    2.3573    2.1744    4.2864 H   0  0  0  0  0  0
    0.8063    0.0871    3.4644 H   0  0  0  0  0  0
    0.8985    0.3723   -0.1208 H   0  0  0  0  0  0
    3.8385   -0.3287    3.3441 H   0  0  0  0  0  0
    2.5800   -1.9334    2.6129 H   0  0  0  0  0  0
    3.4554   -0.9785    5.2664 H   0  0  0  0  0  0
    0.0530    7.1406    1.2622 O   0  5  0  0  0  0
    0.4989    4.1010    4.2870 O   0  5  0  0  0  0
    4.8126    3.3404    4.2936 O   0  5  0  0  0  0
  1  2  1  0  0  0
  1  3  1  0  0  0
  1  4  1  0  0  0
  1 35  1  0  0  0
  2  5  1  0  0  0
  2  6  1  0  0  0
  3  7  1  0  0  0
  4  8  1  0  0  0
  4 36  1  0  0  0
  4 37  1  0  0  0
  5  9  1  0  0  0
  5 10  2  0  0  0
  6 11  2  0  0  0
  6 38  1  0  0  0
  7 12  1  0  0  0
  7  8  1  0  0  0
  7 39  1  0  0  0
  8 13  1  0  0  0
  8 40  1  0  0  0
  9 14  1  0  0  0
  9 41  1  0  0  0
 11 15  1  0  0  0
 11 14  1  0  0  0
 12 16  1  0  0  0
 12 42  1  0  0  0
 12 43  1  0  0  0
 13 44  1  0  0  0
 14 17  2  0  0  0
 15 45  1  0  0  0
 15 46  1  0  0  0
 15 47  1  0  0  0
 16 18  1  0  0  0
 18 19  1  0  0  0
 18 20  2  0  0  0
 18 56  1  0  0  0
 19 21  1  0  0  0
 21 22  1  0  0  0
 21 23  2  0  0  0
 21 57  1  0  0  0
 22 24  1  0  0  0
 24 25  1  0  0  0
 24 26  1  0  0  0
 24 48  1  0  0  0
 25 27  1  0  0  0
 26 28  1  0  0  0
 26 29  1  0  0  0
 26 49  1  0  0  0
 27 30  1  0  0  0
 27 31  1  0  0  0
 27 50  1  0  0  0
 28 32  1  0  0  0
 28 30  1  0  0  0
 28 51  1  0  0  0
 29 52  1  0  0  0
 30 33  1  0  0  0
 30 53  1  0  0  0
 31 34  2  0  0  0
 31 58  1  0  0  0
 32 54  1  0  0  0
 33 55  1  0  0  0
M  CHG  3  56  -1  57  -1  58  -1
M  END
> <i_ionizer_Ion_state_n>
7

> <i_ionizer_Tot_Q>
-3

> <s_ionizer_Ion_centers>
56_57_58

> <s_ionizer_Ion_types>
OM_OM_OM

> <s_ionizer_Ion_ctrs_in>
20_24_36

> <r_ionizer_Ionization_penalty>
0.000607108

> <r_ionizer_Ionization_penalty_charging>
0.000607108

> <r_ionizer_Ionization_penalty_neutral>
0

> <s_st_Chirality_1>
1_R_3_2_4_35

> <s_st_Chirality_2>
7_R_3_8_12_39

> <s_st_Chirality_3>
8_S_13_7_4_40

> <s_st_Chirality_4>
24_R_22_25_26_48

> <s_st_Chirality_5>
26_R_29_24_28_49

> <s_st_Chirality_6>
27_S_25_31_30_50

> <s_st_Chirality_7>
28_S_32_26_30_51

> <s_st_Chirality_8>
30_S_33_27_28_53

> <i_mmod_Serial_Number-OPLS-2005>
851

> <i_i_glide_lignum>
839

> <r_i_docking_score>
-5.38956

> <r_i_glide_gscore>
-5.38956

> <r_i_glide_lipo>
-0.758643

> <r_i_glide_hbond>
-1.89178

> <r_i_glide_metal>
0

> <r_i_glide_eburp>
9.18319e-17

> <r_i_glide_evdw>
-26.978

> <r_i_glide_ecoul>
-13.3793

> <r_i_glide_erotb>
0.468046

> <r_i_glide_esite>
0.288979

> <r_i_glide_emodel>
-85.6989

> <r_i_glide_energy>
-40.3573

> <r_i_glide_einternal>
7.60869

> <i_i_glide_confnum>
295

> <i_i_glide_posenum>
195

$$$$
C06054
                    3D
 Structure written by MMmdl.
 17 16  0  0  1  0            999 V2000
    0.4302    4.2769    3.2130 P   0  0  0  0  0  0
    0.9162    2.6931    3.8991 O   0  0  0  0  0  0
    0.9031    5.2689    4.2986 O   0  0  0  0  0  0
    2.1727    2.1763    3.4848 C   0  0  0  0  0  0
    2.4310    0.7470    4.0169 C   0  0  1  0  0  0
    1.3817   -0.3010    3.5968 C   0  0  0  0  0  0
    3.7071    0.3322    3.5657 O   0  0  0  0  0  0
    0.9196   -0.2761    2.1208 C   0  0  0  0  0  0
    0.8897   -1.0862    4.4098 O   0  0  0  0  0  0
   -0.2373   -0.7003    1.8947 O   0  0  0  0  0  0
    2.2542    2.2343    2.3999 H   0  0  0  0  0  0
    2.9316    2.8570    3.8707 H   0  0  0  0  0  0
    2.4754    0.7760    5.1059 H   0  0  0  0  0  0
    3.9316   -0.4511    4.0483 H   0  0  0  0  0  0
    1.2053    4.3028    1.8775 O   0  5  0  0  0  0
   -1.0996    4.0987    3.0934 O   0  5  0  0  0  0
    1.7604    0.1282    1.2859 O   0  5  0  0  0  0
  1  2  1  0  0  0
  1  3  2  0  0  0
  1 15  1  0  0  0
  1 16  1  0  0  0
  2  4  1  0  0  0
  4  5  1  0  0  0
  4 11  1  0  0  0
  4 12  1  0  0  0
  5  6  1  0  0  0
  5  7  1  0  0  0
  5 13  1  0  0  0
  6  8  1  0  0  0
  6  9  2  0  0  0
  7 14  1  0  0  0
  8 10  2  0  0  0
  8 17  1  0  0  0
M  CHG  3  15  -1  16  -1  17  -1
M  END
> <i_ionizer_Ion_state_n>
7

> <i_ionizer_Tot_Q>
-3

> <s_ionizer_Ion_centers>
15_16_17

> <s_ionizer_Ion_types>
OM_OM_OM

> <s_ionizer_Ion_ctrs_in>
3_4_12

> <r_ionizer_Ionization_penalty>
0.000607108

> <r_ionizer_Ionization_penalty_charging>
0.000607108

> <r_ionizer_Ionization_penalty_neutral>
0

> <s_st_Chirality_1>
5_S_7_6_4_13

> <i_mmod_Serial_Number-OPLS-2005>
852

> <i_i_glide_lignum>
840

> <r_i_docking_score>
-5.38159

> <r_i_glide_gscore>
-5.38159

> <r_i_glide_lipo>
-0.172532

> <r_i_glide_hbond>
-1.54434

> <r_i_glide_metal>
0

> <r_i_glide_eburp>
-2.18905

> <r_i_glide_evdw>
-19.4329

> <r_i_glide_ecoul>
-6.11048

> <r_i_glide_erotb>
1.27962

> <r_i_glide_esite>
-0.589612

> <r_i_glide_emodel>
-63.3163

> <r_i_glide_energy>
-25.5433

> <r_i_glide_einternal>
6.74678

> <i_i_glide_confnum>
6

> <i_i_glide_posenum>
588

$$$$
C00458
                    3D
 Structure written by MMmdl.
 40 41  0  0  1  0            999 V2000
    0.8810    5.8820    1.3031 N   0  0  0  0  0  0
    2.0248    4.9345    1.0130 C   0  0  2  0  0  0
    0.1268    5.6998    2.4861 C   0  0  0  0  0  0
    0.5296    6.8894    0.4147 C   0  0  0  0  0  0
    1.7001    3.6585    1.4857 O   0  0  0  0  0  0
    3.2912    5.3910    1.7421 C   0  0  0  0  0  0
   -0.9201    6.5552    2.7039 N   0  0  0  0  0  0
    0.3865    4.8052    3.2903 O   0  0  0  0  0  0
   -0.5127    7.7178    0.6390 C   0  0  0  0  0  0
    2.6224    3.2603    2.5008 C   0  0  1  0  0  0
    3.2234    4.5714    3.0128 C   0  0  1  0  0  0
   -1.2557    7.5122    1.8608 C   0  0  0  0  0  0
    1.9146    2.4156    3.5665 C   0  0  0  0  0  0
    4.4998    4.4002    3.5907 O   0  0  0  0  0  0
   -2.3039    8.2928    2.1561 N   0  0  0  0  0  0
    1.3257    1.2882    2.9504 O   0  0  0  0  0  0
    1.6698   -0.2963    3.4648 P   0  0  0  0  0  0
    3.3287   -0.3067    3.8481 O   0  0  0  0  0  0
    0.8977   -0.5583    4.7014 O   0  0  0  0  0  0
    4.6018    0.8241    3.9000 P   0  0  0  0  0  0
    4.8254    1.3473    2.2976 O   0  0  0  0  0  0
    4.1590    1.9935    4.6957 O   0  0  0  0  0  0
    4.6184    0.9544    0.5701 P   0  0  0  0  0  0
    3.1549    1.3703    0.3014 O   0  0  0  0  0  0
    2.1316    4.8996   -0.0719 H   0  0  0  0  0  0
    1.0857    7.0314   -0.4987 H   0  0  0  0  0  0
    4.1549    5.1070    1.1393 H   0  0  0  0  0  0
    3.3117    6.4690    1.9068 H   0  0  0  0  0  0
   -0.7521    8.4820   -0.0867 H   0  0  0  0  0  0
    3.3962    2.6658    2.0120 H   0  0  0  0  0  0
    2.5588    5.0542    3.7267 H   0  0  0  0  0  0
    2.6085    2.0988    4.3412 H   0  0  0  0  0  0
    1.1418    3.0114    4.0524 H   0  0  0  0  0  0
    5.0652    4.0388    2.9201 H   0  0  0  0  0  0
   -2.5900    9.0186    1.5153 H   0  0  0  0  0  0
   -2.8163    8.1361    3.0113 H   0  0  0  0  0  0
    1.4738   -1.1897    2.3000 O   0  5  0  0  0  0
    5.8238    0.1002    4.3229 O   0  5  0  0  0  0
    5.7049    1.8244   -0.1008 O   0  5  0  0  0  0
    4.8868   -0.5683    0.5634 O   0  5  0  0  0  0
  1  2  1  0  0  0
  1  3  1  0  0  0
  1  4  1  0  0  0
  2  5  1  0  0  0
  2  6  1  0  0  0
  2 25  1  0  0  0
  3  7  1  0  0  0
  3  8  2  0  0  0
  4  9  2  0  0  0
  4 26  1  0  0  0
  5 10  1  0  0  0
  6 11  1  0  0  0
  6 27  1  0  0  0
  6 28  1  0  0  0
  7 12  2  0  0  0
  9 12  1  0  0  0
  9 29  1  0  0  0
 10 13  1  0  0  0
 10 11  1  0  0  0
 10 30  1  0  0  0
 11 14  1  0  0  0
 11 31  1  0  0  0
 12 15  1  0  0  0
 13 16  1  0  0  0
 13 32  1  0  0  0
 13 33  1  0  0  0
 14 34  1  0  0  0
 15 35  1  0  0  0
 15 36  1  0  0  0
 16 17  1  0  0  0
 17 18  1  0  0  0
 17 19  2  0  0  0
 17 37  1  0  0  0
 18 20  1  0  0  0
 20 21  1  0  0  0
 20 22  2  0  0  0
 20 38  1  0  0  0
 21 23  1  0  0  0
 23 24  2  0  0  0
 23 39  1  0  0  0
 23 40  1  0  0  0
M  CHG  4  37  -1  38  -1  39  -1  40  -1
M  END
> <i_ionizer_Ion_state_n>
15

> <i_ionizer_Tot_Q>
-4

> <s_ionizer_Ion_centers>
37_38_39_40

> <s_ionizer_Ion_types>
OM_OM_OM_OM

> <s_ionizer_Ion_ctrs_in>
19_23_26_27

> <r_ionizer_Ionization_penalty>
2.98356e-05

> <r_ionizer_Ionization_penalty_charging>
2.98356e-05

> <r_ionizer_Ionization_penalty_neutral>
0

> <s_st_Chirality_1>
2_R_5_1_6_25

> <s_st_Chirality_2>
10_R_5_11_13_30

> <s_st_Chirality_3>
11_S_14_10_6_31

> <i_mmod_Serial_Number-OPLS-2005>
246

> <i_i_glide_lignum>
244

> <r_i_docking_score>
-5.38147

> <r_i_glide_gscore>
-5.38147

> <r_i_glide_lipo>
-0.636062

> <r_i_glide_hbond>
-0.649125

> <r_i_glide_metal>
0

> <r_i_glide_eburp>
-0.279321

> <r_i_glide_evdw>
-40.9614

> <r_i_glide_ecoul>
-8.03983

> <r_i_glide_erotb>
0.751528

> <r_i_glide_esite>
-0.487593

> <r_i_glide_emodel>
-98.8715

> <r_i_glide_energy>
-49.0013

> <r_i_glide_einternal>
6.1731

> <i_i_glide_confnum>
35

> <i_i_glide_posenum>
830

$$$$
C00093
                    3D
 Structure written by MMmdl.
 17 16  0  0  1  0            999 V2000
    0.0285    3.8964    2.8288 P   0  0  0  0  0  0
    0.4169    2.2263    2.2994 O   0  0  0  0  0  0
   -1.4994    3.9808    2.6120 O   0  0  0  0  0  0
    1.1046    1.4300    3.2493 C   0  0  0  0  0  0
    1.5154    0.0749    2.6358 C   0  0  1  0  0  0
    2.2881   -0.8055    3.6321 C   0  0  0  0  0  0
    0.3434   -0.6216    2.2604 O   0  0  0  0  0  0
    3.4766   -0.1586    4.0431 O   0  0  0  0  0  0
    1.9829    1.9808    3.5892 H   0  0  0  0  0  0
    0.4794    1.2977    4.1330 H   0  0  0  0  0  0
    2.1261    0.2353    1.7466 H   0  0  0  0  0  0
    1.6811   -0.9829    4.5208 H   0  0  0  0  0  0
    2.5241   -1.7795    3.2015 H   0  0  0  0  0  0
    0.1000   -1.1780    2.9847 H   0  0  0  0  0  0
    3.9315   -0.7252    4.6471 H   0  0  0  0  0  0
    0.4988    3.8706    4.2995 O   0  5  0  0  0  0
    0.8905    4.7348    1.8591 O   0  5  0  0  0  0
  1  2  1  0  0  0
  1  3  2  0  0  0
  1 16  1  0  0  0
  1 17  1  0  0  0
  2  4  1  0  0  0
  4  5  1  0  0  0
  4  9  1  0  0  0
  4 10  1  0  0  0
  5  6  1  0  0  0
  5  7  1  0  0  0
  5 11  1  0  0  0
  6  8  1  0  0  0
  6 12  1  0  0  0
  6 13  1  0  0  0
  7 14  1  0  0  0
  8 15  1  0  0  0
M  CHG  2  16  -1  17  -1
M  END
> <i_ionizer_Ion_state_n>
3

> <i_ionizer_Tot_Q>
-2

> <s_ionizer_Ion_centers>
16_17

> <s_ionizer_Ion_types>
OM_OM

> <s_ionizer_Ion_ctrs_in>
3_4

> <r_ionizer_Ionization_penalty>
1.49178e-05

> <r_ionizer_Ionization_penalty_charging>
1.49178e-05

> <r_ionizer_Ionization_penalty_neutral>
0

> <s_st_Chirality_1>
5_R_7_4_6_11

> <i_mmod_Serial_Number-OPLS-2005>
65

> <i_i_glide_lignum>
64

> <r_i_docking_score>
-5.38115

> <r_i_glide_gscore>
-5.38115

> <r_i_glide_lipo>
-0.301542

> <r_i_glide_hbond>
-1.99316

> <r_i_glide_metal>
0

> <r_i_glide_eburp>
-2.89955

> <r_i_glide_evdw>
-10.1752

> <r_i_glide_ecoul>
-11.0987

> <r_i_glide_erotb>
1.82902

> <r_i_glide_esite>
-0.0920359

> <r_i_glide_emodel>
-48.6191

> <r_i_glide_energy>
-21.2739

> <r_i_glide_einternal>
6.53789

> <i_i_glide_confnum>
11

> <i_i_glide_posenum>
60

$$$$
C05648
                    3D
 Structure written by MMmdl.
 30 30  0  0  1  0            999 V2000
    1.0349    3.6147    2.2994 C   0  0  0  0  0  0
    2.1401    4.3326    1.7549 C   0  0  0  0  0  0
    1.1410    2.1907    2.7409 C   0  0  0  0  0  0
   -0.1997    4.2812    2.4804 C   0  0  0  0  0  0
    1.9703    5.6950    1.4002 C   0  0  0  0  0  0
    3.3920    3.6735    1.5741 N   0  0  0  0  0  0
    2.2588    1.8471    3.7425 C   0  0  0  0  0  0
    0.3831    1.3002    2.3543 O   0  0  0  0  0  0
   -0.3543    5.6303    2.1171 C   0  0  0  0  0  0
    0.7319    6.3377    1.5760 C   0  0  0  0  0  0
    3.6211    2.4567    1.0583 C   0  0  0  0  0  0
    2.8129    0.4029    3.6089 C   0  0  2  0  0  0
   -1.5560    6.2498    2.2978 O   0  0  0  0  0  0
    2.7192    1.7292    0.6509 O   0  0  0  0  0  0
    1.7168   -0.6757    3.6395 C   0  0  0  0  0  0
    1.6783   -1.4998    2.6986 O   0  0  0  0  0  0
   -1.0438    3.7629    2.9112 H   0  0  0  0  0  0
    2.7833    6.2759    0.9938 H   0  0  0  0  0  0
    4.2040    4.1774    1.9044 H   0  0  0  0  0  0
    3.0672    2.5623    3.5872 H   0  0  0  0  0  0
    1.9024    2.0076    4.7611 H   0  0  0  0  0  0
    0.6229    7.3760    1.2992 H   0  0  0  0  0  0
    4.6869    2.1896    1.0355 H   0  0  0  0  0  0
    3.3722    0.3212    2.6748 H   0  0  0  0  0  0
   -1.5615    7.1467    2.0005 H   0  0  0  0  0  0
    4.1182   -0.8297    4.5694 H   0  0  0  0  0  0
    4.5102    0.7709    4.6958 H   0  0  0  0  0  0
    3.7533    0.1030    4.7000 N   0  3  0  0  0  0
    3.2591    0.1471    5.5798 H   0  0  0  0  0  0
    0.9066   -0.6294    4.5900 O   0  5  0  0  0  0
  1  2  1  0  0  0
  1  3  1  0  0  0
  1  4  2  0  0  0
  2  5  2  0  0  0
  2  6  1  0  0  0
  3  7  1  0  0  0
  3  8  2  0  0  0
  4  9  1  0  0  0
  4 17  1  0  0  0
  5 10  1  0  0  0
  5 18  1  0  0  0
  6 11  1  0  0  0
  6 19  1  0  0  0
  7 12  1  0  0  0
  7 20  1  0  0  0
  7 21  1  0  0  0
  9 13  1  0  0  0
  9 10  2  0  0  0
 10 22  1  0  0  0
 11 14  2  0  0  0
 11 23  1  0  0  0
 12 15  1  0  0  0
 12 24  1  0  0  0
 12 28  1  0  0  0
 13 25  1  0  0  0
 15 16  2  0  0  0
 15 30  1  0  0  0
 26 28  1  0  0  0
 27 28  1  0  0  0
 28 29  1  0  0  0
M  CHG  2  28   1  30  -1
M  END
> <i_ionizer_Ion_state_n>
6

> <i_ionizer_Tot_Q>
0

> <s_ionizer_Ion_centers>
28_30

> <s_ionizer_Ion_types>
N5_OM

> <s_ionizer_Ion_ctrs_in>
16_17

> <r_ionizer_Ionization_penalty>
0.00137171

> <r_ionizer_Ionization_penalty_charging>
0.000779521

> <r_ionizer_Ionization_penalty_neutral>
0.00059219

> <s_st_Chirality_1>
12_R_28_15_7_24

> <i_mmod_Serial_Number-OPLS-2005>
772

> <i_i_glide_lignum>
763

> <r_i_docking_score>
-5.38034

> <r_i_glide_gscore>
-5.38034

> <r_i_glide_lipo>
-0.679147

> <r_i_glide_hbond>
-0.661434

> <r_i_glide_metal>
0

> <r_i_glide_eburp>
-1.87706

> <r_i_glide_evdw>
-24.1827

> <r_i_glide_ecoul>
-6.87712

> <r_i_glide_erotb>
1.26066

> <r_i_glide_esite>
-0.801044

> <r_i_glide_emodel>
-53.5681

> <r_i_glide_energy>
-31.0598

> <r_i_glide_einternal>
7.82772

> <i_i_glide_confnum>
16

> <i_i_glide_posenum>
517

$$$$
C06196
                    3D
 Structure written by MMmdl.
 34 36  0  0  1  0            999 V2000
    1.5973    5.2994    1.7858 N   0  0  0  0  0  0
    0.8028    5.9609    0.9148 C   0  0  0  0  0  0
    2.8150    4.4973    1.4138 C   0  0  2  0  0  0
    1.0006    5.5233    2.9880 C   0  0  0  0  0  0
   -0.2808    6.5811    1.5739 C   0  0  0  0  0  0
    0.8922    6.0994   -0.4463 N   0  0  0  0  0  0
    2.4879    3.1486    1.5342 O   0  0  0  0  0  0
    3.9704    4.6885    2.3895 C   0  0  0  0  0  0
   -0.1075    6.2662    2.9317 N   0  3  0  0  0  0
   -1.2161    7.3021    0.8395 C   0  0  0  0  0  0
   -0.0538    6.8095   -1.0685 C   0  0  0  0  0  0
    2.6549    2.7199    2.8900 C   0  0  1  0  0  0
    3.5523    3.7923    3.5455 C   0  0  1  0  0  0
   -1.0994    7.4177   -0.4999 N   0  0  0  0  0  0
   -2.2654    7.9039    1.4678 O   0  0  0  0  0  0
    1.2534    2.5147    3.5056 C   0  0  0  0  0  0
    4.6818    3.2352    4.1823 O   0  0  0  0  0  0
    0.4438    1.5925    2.7915 O   0  0  0  0  0  0
    1.0523   -0.0890    2.6115 P   0  0  0  0  0  0
    0.9006   -0.6278    4.0513 O   0  0  0  0  0  0
    3.0386    4.7859    0.3860 H   0  0  0  0  0  0
    1.3735    5.1235    3.9142 H   0  0  0  0  0  0
    4.8755    4.3111    1.9111 H   0  0  0  0  0  0
    4.1281    5.7340    2.6550 H   0  0  0  0  0  0
   -0.6945    6.5173    3.7174 H   0  0  0  0  0  0
    0.0374    6.9024   -2.1408 H   0  0  0  0  0  0
    3.1675    1.7577    2.8505 H   0  0  0  0  0  0
    2.9997    4.3748    4.2770 H   0  0  0  0  0  0
   -2.4668    8.7511    1.1008 H   0  0  0  0  0  0
    1.3025    2.2705    4.5644 H   0  0  0  0  0  0
    0.7226    3.4655    3.4614 H   0  0  0  0  0  0
    4.3603    2.5768    4.7913 H   0  0  0  0  0  0
    0.1004   -0.7000    1.5559 O   0  5  0  0  0  0
    2.5002    0.1608    2.1381 O   0  5  0  0  0  0
  1  2  1  0  0  0
  1  3  1  0  0  0
  1  4  1  0  0  0
  2  5  2  0  0  0
  2  6  1  0  0  0
  3  7  1  0  0  0
  3  8  1  0  0  0
  3 21  1  0  0  0
  4  9  2  0  0  0
  4 22  1  0  0  0
  5 10  1  0  0  0
  5  9  1  0  0  0
  6 11  2  0  0  0
  7 12  1  0  0  0
  8 13  1  0  0  0
  8 23  1  0  0  0
  8 24  1  0  0  0
  9 25  1  0  0  0
 10 14  2  0  0  0
 10 15  1  0  0  0
 11 14  1  0  0  0
 11 26  1  0  0  0
 12 16  1  0  0  0
 12 13  1  0  0  0
 12 27  1  0  0  0
 13 17  1  0  0  0
 13 28  1  0  0  0
 15 29  1  0  0  0
 16 18  1  0  0  0
 16 30  1  0  0  0
 16 31  1  0  0  0
 17 32  1  0  0  0
 18 19  1  0  0  0
 19 20  2  0  0  0
 19 33  1  0  0  0
 19 34  1  0  0  0
M  CHG  3   9   1  33  -1  34  -1
M  END
> <i_ionizer_Ion_state_n>
3

> <i_ionizer_Tot_Q>
-2

> <s_ionizer_Ion_centers>
33_34

> <s_ionizer_Ion_types>
OM_OM

> <s_ionizer_Ion_ctrs_in>
20_21

> <r_ionizer_Ionization_penalty>
1.49178e-05

> <r_ionizer_Ionization_penalty_charging>
1.49178e-05

> <r_ionizer_Ionization_penalty_neutral>
0

> <s_st_Chirality_1>
3_R_7_1_8_21

> <s_st_Chirality_2>
12_R_7_13_16_27

> <s_st_Chirality_3>
13_S_17_12_8_28

> <s_st_EZ_1>
3_1_4_9_E

> <s_st_EZ_2>
1_2_6_11_E

> <s_st_EZ_3>
9_5_10_15_Z

> <i_mmod_Serial_Number-OPLS-2005>
863

> <i_i_glide_lignum>
851

> <r_i_docking_score>
-5.3801

> <r_i_glide_gscore>
-5.3801

> <r_i_glide_lipo>
-0.540263

> <r_i_glide_hbond>
-0.400668

> <r_i_glide_metal>
0

> <r_i_glide_eburp>
-1.27876

> <r_i_glide_evdw>
-31.0552

> <r_i_glide_ecoul>
-6.41337

> <r_i_glide_erotb>
0.588169

> <r_i_glide_esite>
-0.62283

> <r_i_glide_emodel>
-65.911

> <r_i_glide_energy>
-37.4685

> <r_i_glide_einternal>
4.29904

> <i_i_glide_confnum>
6

> <i_i_glide_posenum>
643

$$$$
C00483
                    3D
 Structure written by MMmdl.
 22 22  0  0  1  0            999 V2000
    4.4025    0.9397    4.3071 C   0  0  0  0  0  0
    3.2188    0.1721    4.2942 C   0  0  0  0  0  0
    4.3624    2.2914    3.9046 C   0  0  0  0  0  0
    5.7121    0.3132    4.7462 C   0  0  0  0  0  0
    2.0035    0.7528    3.8823 C   0  0  0  0  0  0
    3.1468    2.8719    3.4928 C   0  0  0  0  0  0
    5.8555    0.2878    6.2744 C   0  0  0  0  0  0
    1.9664    2.1026    3.4815 C   0  0  0  0  0  0
    0.7873    2.6615    3.0831 O   0  0  0  0  0  0
    3.2380   -0.8641    4.5990 H   0  0  0  0  0  0
    5.2631    2.8878    3.9093 H   0  0  0  0  0  0
    5.7723   -0.6997    4.3452 H   0  0  0  0  0  0
    6.5375    0.8695    4.2995 H   0  0  0  0  0  0
    1.0998    0.1609    3.8743 H   0  0  0  0  0  0
    3.1253    3.9076    3.1865 H   0  0  0  0  0  0
    6.0895    1.2848    6.6498 H   0  0  0  0  0  0
    4.9169   -0.0184    6.7381 H   0  0  0  0  0  0
    6.9869   -0.6329    7.7079 H   0  0  0  0  0  0
    6.6987   -1.5738    6.3857 H   0  0  0  0  0  0
    0.8937    3.5085    2.6779 H   0  0  0  0  0  0
    6.9180   -0.6392    6.7001 N   0  3  0  0  0  0
    7.8002   -0.3493    6.3027 H   0  0  0  0  0  0
  1  2  2  0  0  0
  1  3  1  0  0  0
  1  4  1  0  0  0
  2  5  1  0  0  0
  2 10  1  0  0  0
  3  6  2  0  0  0
  3 11  1  0  0  0
  4  7  1  0  0  0
  4 12  1  0  0  0
  4 13  1  0  0  0
  5  8  2  0  0  0
  5 14  1  0  0  0
  6  8  1  0  0  0
  6 15  1  0  0  0
  7 16  1  0  0  0
  7 17  1  0  0  0
  7 21  1  0  0  0
  8  9  1  0  0  0
  9 20  1  0  0  0
 18 21  1  0  0  0
 19 21  1  0  0  0
 21 22  1  0  0  0
M  CHG  1  21   1
M  END
> <i_ionizer_Ion_state_n>
1

> <i_ionizer_Tot_Q>
1

> <s_ionizer_Ion_centers>
21

> <s_ionizer_Ion_types>
N5

> <s_ionizer_Ion_ctrs_in>
9

> <r_ionizer_Ionization_penalty>
0.000779521

> <r_ionizer_Ionization_penalty_charging>
0.000187331

> <r_ionizer_Ionization_penalty_neutral>
0.00059219

> <i_mmod_Serial_Number-OPLS-2005>
254

> <i_i_glide_lignum>
252

> <r_i_docking_score>
-5.37354

> <r_i_glide_gscore>
-5.37354

> <r_i_glide_lipo>
-0.814748

> <r_i_glide_hbond>
-0.736583

> <r_i_glide_metal>
0

> <r_i_glide_eburp>
-2.5

> <r_i_glide_evdw>
-16.2358

> <r_i_glide_ecoul>
-7.88264

> <r_i_glide_erotb>
0.850655

> <r_i_glide_esite>
-0.0857353

> <r_i_glide_emodel>
-40.146

> <r_i_glide_energy>
-24.1185

> <r_i_glide_einternal>
0.842456

> <i_i_glide_confnum>
2

> <i_i_glide_posenum>
88

$$$$
C00700
                    3D
 Structure written by MMmdl.
 44 46  0  0  1  0            999 V2000
   -1.6350    9.8893    6.0123 N   0  0  0  0  0  0
   -1.5367   11.1447    5.4717 C   0  0  0  0  0  0
   -2.1714    8.6273    5.4271 C   0  0  2  0  0  0
   -1.1300   10.0791    7.2672 C   0  0  0  0  0  0
   -0.9701   11.9956    6.3749 C   0  0  0  0  0  0
   -1.8995   11.6139    4.1910 N   0  0  0  0  0  0
   -1.1032    7.8984    4.8925 O   0  0  0  0  0  0
   -3.1440    8.9423    4.2737 C   0  0  1  0  0  0
   -0.7170   13.4181    6.0057 C   0  0  0  0  0  0
   -1.6796   12.9020    3.8196 C   0  0  0  0  0  0
   -1.4966    7.3757    3.6314 C   0  0  1  0  0  0
   -2.3518    8.4956    3.0485 C   0  0  1  0  0  0
   -4.3480    8.2119    4.4218 O   0  0  0  0  0  0
   -1.1128   13.7342    4.7453 N   0  0  0  0  0  0
   -0.2125   14.2177    6.7915 O   0  0  0  0  0  0
   -1.9888   13.3064    2.7018 O   0  0  0  0  0  0
   -0.3121    6.8875    2.7768 C   0  0  0  0  0  0
   -3.1826    8.0998    1.9725 O   0  0  0  0  0  0
    0.3947    5.7710    3.2917 O   0  0  0  0  0  0
   -0.0768    4.1520    3.0314 P   0  0  0  0  0  0
    1.0574    3.5853    1.9010 O   0  0  0  0  0  0
    0.1038    3.4018    4.2959 O   0  0  0  0  0  0
    2.5435    2.7624    2.0072 P   0  0  0  0  0  0
    2.0658    1.1305    1.9925 O   0  0  0  0  0  0
    3.3024    3.0071    0.7562 O   0  0  0  0  0  0
    1.0772   -0.1255    2.7843 P   0  0  0  0  0  0
   -0.1952   -0.1532    1.9098 O   0  0  0  0  0  0
   -2.6320    8.1107    6.2703 H   0  0  0  0  0  0
   -1.0464    9.2789    7.9810 H   0  0  0  0  0  0
   -2.2992   10.9626    3.5310 H   0  0  0  0  0  0
   -3.3911   10.0020    4.2281 H   0  0  0  0  0  0
   -2.1305    6.5127    3.8454 H   0  0  0  0  0  0
   -1.7091    9.3094    2.7155 H   0  0  0  0  0  0
   -4.9419    8.5006    3.7448 H   0  0  0  0  0  0
   -0.9512   14.6853    4.4512 H   0  0  0  0  0  0
   -0.6366    6.6859    1.7557 H   0  0  0  0  0  0
    0.4159    7.6956    2.7064 H   0  0  0  0  0  0
   -3.5667    8.8829    1.6057 H   0  0  0  0  0  0
   -0.7101   11.3171    7.5342 N   0  3  0  0  0  0
   -0.2283   11.6375    8.3660 H   0  0  0  0  0  0
   -1.4107    4.1886    2.3922 O   0  5  0  0  0  0
    3.1770    3.0665    3.3105 O   0  5  0  0  0  0
    1.9874   -1.3708    2.6992 O   0  5  0  0  0  0
    0.8999    0.4697    4.1997 O   0  5  0  0  0  0
  1  2  1  0  0  0
  1  3  1  0  0  0
  1  4  1  0  0  0
  2  5  2  0  0  0
  2  6  1  0  0  0
  3  7  1  0  0  0
  3  8  1  0  0  0
  3 28  1  0  0  0
  4 29  1  0  0  0
  4 39  2  0  0  0
  5  9  1  0  0  0
  5 39  1  0  0  0
  6 10  1  0  0  0
  6 30  1  0  0  0
  7 11  1  0  0  0
  8 12  1  0  0  0
  8 13  1  0  0  0
  8 31  1  0  0  0
  9 14  1  0  0  0
  9 15  2  0  0  0
 10 16  2  0  0  0
 10 14  1  0  0  0
 11 17  1  0  0  0
 11 12  1  0  0  0
 11 32  1  0  0  0
 12 18  1  0  0  0
 12 33  1  0  0  0
 13 34  1  0  0  0
 14 35  1  0  0  0
 17 19  1  0  0  0
 17 36  1  0  0  0
 17 37  1  0  0  0
 18 38  1  0  0  0
 19 20  1  0  0  0
 20 21  1  0  0  0
 20 22  2  0  0  0
 20 41  1  0  0  0
 21 23  1  0  0  0
 23 24  1  0  0  0
 23 25  2  0  0  0
 23 42  1  0  0  0
 24 26  1  0  0  0
 26 27  2  0  0  0
 26 43  1  0  0  0
 26 44  1  0  0  0
 39 40  1  0  0  0
M  CHG  5  39   1  41  -1  42  -1  43  -1  44  -1
M  END
> <i_ionizer_Ion_state_n>
31

> <i_ionizer_Tot_Q>
-3

> <s_ionizer_Ion_centers>
39_41_42_43_44

> <s_ionizer_Ion_types>
N4_OM_OM_OM_OM

> <s_ionizer_Ion_ctrs_in>
9_23_27_30_31

> <r_ionizer_Ionization_penalty>
0.41071

> <r_ionizer_Ionization_penalty_charging>
0.41071

> <r_ionizer_Ionization_penalty_neutral>
0

> <s_st_Chirality_1>
3_R_7_1_8_28

> <s_st_Chirality_2>
8_R_13_3_12_31

> <s_st_Chirality_3>
11_R_7_12_17_32

> <s_st_Chirality_4>
12_R_18_8_11_33

> <i_mmod_Serial_Number-OPLS-2005>
324

> <i_i_glide_lignum>
321

> <r_i_docking_score>
-5.37324

> <r_i_glide_gscore>
-5.37324

> <r_i_glide_lipo>
-0.346867

> <r_i_glide_hbond>
-2.38289

> <r_i_glide_metal>
0

> <r_i_glide_eburp>
-0.4

> <r_i_glide_evdw>
-22.0275

> <r_i_glide_ecoul>
-20.544

> <r_i_glide_erotb>
0.605484

> <r_i_glide_esite>
0.967633

> <r_i_glide_emodel>
-120.205

> <r_i_glide_energy>
-42.5715

> <r_i_glide_einternal>
12.0915

> <i_i_glide_confnum>
268

> <i_i_glide_posenum>
494

$$$$
C07725
                    3D
 Structure written by MMmdl.
 26 27  0  0  1  0            999 V2000
    0.6805    4.9662    1.9955 C   0  0  0  0  0  0
    1.6986    4.0162    2.4456 C   0  0  0  0  0  0
    1.2602    5.9766    1.2245 C   0  0  0  0  0  0
   -0.7068    4.9618    2.2426 C   0  0  0  0  0  0
    2.9778    4.5239    1.8947 C   0  0  0  0  0  0
    1.4940    2.9181    3.2078 C   0  0  0  0  0  0
    2.7497    5.7996    1.0820 C   0  0  0  0  0  0
    0.4879    7.0141    0.6727 C   0  0  0  0  0  0
   -1.4957    5.9972    1.6951 C   0  0  0  0  0  0
    4.1020    4.0458    2.0344 O   0  0  0  0  0  0
    2.4959    1.9504    3.6401 C   0  0  0  0  0  0
   -0.9026    7.0169    0.9150 C   0  0  0  0  0  0
    2.4796    0.6109    3.4539 C   0  0  0  0  0  0
    1.3863   -0.2787    2.7546 C   0  0  0  0  0  0
    3.5350   -0.0773    3.9096 O   0  0  0  0  0  0
    0.3506    0.2779    2.3318 O   0  0  0  0  0  0
   -1.1656    4.1863    2.8379 H   0  0  0  0  0  0
    0.4698    2.7397    3.4856 H   0  0  0  0  0  0
    3.0356    5.6611    0.0393 H   0  0  0  0  0  0
    3.2928    6.6431    1.5084 H   0  0  0  0  0  0
    0.9466    7.7904    0.0782 H   0  0  0  0  0  0
   -2.5608    6.0102    1.8741 H   0  0  0  0  0  0
    3.3647    2.3278    4.1552 H   0  0  0  0  0  0
   -1.5176    7.8030    0.5023 H   0  0  0  0  0  0
    3.1900   -0.8924    4.2478 H   0  0  0  0  0  0
    1.6541   -1.5001    2.6980 O   0  5  0  0  0  0
  1  2  1  0  0  0
  1  3  2  0  0  0
  1  4  1  0  0  0
  2  5  1  0  0  0
  2  6  2  0  0  0
  3  7  1  0  0  0
  3  8  1  0  0  0
  4  9  2  0  0  0
  4 17  1  0  0  0
  5 10  2  0  0  0
  5  7  1  0  0  0
  6 11  1  0  0  0
  6 18  1  0  0  0
  7 19  1  0  0  0
  7 20  1  0  0  0
  8 12  2  0  0  0
  8 21  1  0  0  0
  9 12  1  0  0  0
  9 22  1  0  0  0
 11 13  2  0  0  0
 11 23  1  0  0  0
 12 24  1  0  0  0
 13 14  1  0  0  0
 13 15  1  0  0  0
 14 16  2  0  0  0
 14 26  1  0  0  0
 15 25  1  0  0  0
M  CHG  1  26  -1
M  END
> <i_ionizer_Ion_state_n>
1

> <i_ionizer_Tot_Q>
-1

> <s_ionizer_Ion_centers>
26

> <s_ionizer_Ion_types>
OM

> <s_ionizer_Ion_ctrs_in>
16

> <r_ionizer_Ionization_penalty>
0.00059219

> <r_ionizer_Ionization_penalty_charging>
0.00059219

> <r_ionizer_Ionization_penalty_neutral>
0

> <s_st_EZ_1>
5_2_6_11_Z

> <i_mmod_Serial_Number-OPLS-2005>
906

> <i_i_glide_lignum>
894

> <r_i_docking_score>
-5.37005

> <r_i_glide_gscore>
-5.37005

> <r_i_glide_lipo>
-0.99422

> <r_i_glide_hbond>
-0.343635

> <r_i_glide_metal>
0

> <r_i_glide_eburp>
-2.05141

> <r_i_glide_evdw>
-25.7593

> <r_i_glide_ecoul>
-3.58627

> <r_i_glide_erotb>
1.11316

> <r_i_glide_esite>
-0.674574

> <r_i_glide_emodel>
-46.56

> <r_i_glide_energy>
-29.3456

> <r_i_glide_einternal>
4.14999

> <i_i_glide_confnum>
7

> <i_i_glide_posenum>
883

$$$$
C00106
                    3D
 Structure written by MMmdl.
 12 12  0  0  1  0            999 V2000
    2.3559    0.0062    1.6091 N   0  0  0  0  0  0
    1.1768   -0.2344    2.3253 C   0  0  0  0  0  0
    3.6307    0.1001    2.1691 C   0  0  0  0  0  0
    1.3590   -0.3909    3.7685 C   0  0  0  0  0  0
    0.1002   -0.2992    1.7364 O   0  0  0  0  0  0
    3.7198   -0.0610    3.5532 N   0  0  0  0  0  0
    4.6245    0.3135    1.4800 O   0  0  0  0  0  0
    2.5952   -0.3004    4.3161 C   0  0  0  0  0  0
    2.2773    0.1207    0.6095 H   0  0  0  0  0  0
    0.5013   -0.5794    4.3978 H   0  0  0  0  0  0
    4.6339    0.0034    3.9778 H   0  0  0  0  0  0
    2.7137   -0.4182    5.3834 H   0  0  0  0  0  0
  1  2  1  0  0  0
  1  3  1  0  0  0
  1  9  1  0  0  0
  2  4  1  0  0  0
  2  5  2  0  0  0
  3  6  1  0  0  0
  3  7  2  0  0  0
  4  8  2  0  0  0
  4 10  1  0  0  0
  6  8  1  0  0  0
  6 11  1  0  0  0
  8 12  1  0  0  0
M  END
> <i_ionizer_Ion_state_n>
0

> <i_ionizer_Tot_Q>
0

> <s_ionizer_Ion_centers>


> <s_ionizer_Ion_types>


> <s_ionizer_Ion_ctrs_in>


> <r_ionizer_Ionization_penalty>
0

> <r_ionizer_Ionization_penalty_charging>
0

> <r_ionizer_Ionization_penalty_neutral>
0

> <i_mmod_Serial_Number-OPLS-2005>
76

> <i_i_glide_lignum>
75

> <r_i_docking_score>
-5.36462

> <r_i_glide_gscore>
-5.36462

> <r_i_glide_lipo>
-0.366635

> <r_i_glide_hbond>
-0.13918

> <r_i_glide_metal>
0

> <r_i_glide_eburp>
-2.5

> <r_i_glide_evdw>
-19.5185

> <r_i_glide_ecoul>
-2.85167

> <r_i_glide_erotb>
0

> <r_i_glide_esite>
-0.512159

> <r_i_glide_emodel>
-27.3788

> <r_i_glide_energy>
-22.3701

> <r_i_glide_einternal>
0

> <i_i_glide_confnum>
1

> <i_i_glide_posenum>
472

$$$$
C05925
                    3D
 Structure written by MMmdl.
 34 35  0  0  1  0            999 V2000
    0.4035    6.4857    1.6347 C   0  0  0  0  0  0
   -0.0534    6.3952    2.9116 C   0  0  0  0  0  0
    1.5619    5.8071    1.2215 N   0  0  0  0  0  0
   -0.3437    7.3162    0.6807 C   0  0  0  0  0  0
    0.6023    5.6322    3.8553 N   0  0  0  0  0  0
   -1.1973    7.0508    3.3692 N   0  0  0  0  0  0
    2.2293    5.0826    2.0423 C   0  0  0  0  0  0
   -1.4407    7.9216    1.1972 N   0  0  0  0  0  0
   -0.0356    7.4760   -0.4995 O   0  0  0  0  0  0
    1.8184    4.9052    3.5129 C   0  0  0  0  0  0
   -1.8549    7.7843    2.5282 C   0  0  0  0  0  0
    3.4959    4.3313    1.6334 C   0  0  2  0  0  0
   -3.0002    8.4978    2.8135 N   0  0  0  0  0  0
    3.2166    2.8956    1.1209 C   0  0  1  0  0  0
    4.4566    4.2859    2.6732 O   0  0  0  0  0  0
    2.0884    2.1866    1.8994 C   0  0  0  0  0  0
    2.8952    2.9316   -0.2564 O   0  0  0  0  0  0
    2.2400    0.7744    1.8894 O   0  0  0  0  0  0
    1.0614   -0.1722    2.8568 P   0  0  0  0  0  0
   -0.1601   -0.2399    1.9139 O   0  0  0  0  0  0
    0.2582    5.5864    4.8034 H   0  0  0  0  0  0
   -1.9817    8.5023    0.5748 H   0  0  0  0  0  0
    2.6247    5.2496    4.1603 H   0  0  0  0  0  0
    1.6636    3.8462    3.7200 H   0  0  0  0  0  0
    3.9567    4.8987    0.8241 H   0  0  0  0  0  0
   -3.4964    9.0652    2.1422 H   0  0  0  0  0  0
   -3.4277    8.5058    3.7283 H   0  0  0  0  0  0
    4.1260    2.3046    1.2355 H   0  0  0  0  0  0
    4.0695    3.8069    3.3914 H   0  0  0  0  0  0
    2.1348    2.4751    2.9494 H   0  0  0  0  0  0
    1.1017    2.4943    1.5516 H   0  0  0  0  0  0
    3.5467    3.4877   -0.6768 H   0  0  0  0  0  0
    1.8159   -1.5019    3.0812 O   0  5  0  0  0  0
    0.8999    0.7249    4.1032 O   0  5  0  0  0  0
  1  2  2  0  0  0
  1  3  1  0  0  0
  1  4  1  0  0  0
  2  5  1  0  0  0
  2  6  1  0  0  0
  3  7  2  0  0  0
  4  8  1  0  0  0
  4  9  2  0  0  0
  5 10  1  0  0  0
  5 21  1  0  0  0
  6 11  2  0  0  0
  7 12  1  0  0  0
  7 10  1  0  0  0
  8 11  1  0  0  0
  8 22  1  0  0  0
 10 23  1  0  0  0
 10 24  1  0  0  0
 11 13  1  0  0  0
 12 14  1  0  0  0
 12 15  1  0  0  0
 12 25  1  0  0  0
 13 26  1  0  0  0
 13 27  1  0  0  0
 14 16  1  0  0  0
 14 17  1  0  0  0
 14 28  1  0  0  0
 15 29  1  0  0  0
 16 18  1  0  0  0
 16 30  1  0  0  0
 16 31  1  0  0  0
 17 32  1  0  0  0
 18 19  1  0  0  0
 19 20  2  0  0  0
 19 33  1  0  0  0
 19 34  1  0  0  0
M  CHG  2  33  -1  34  -1
M  END
> <i_ionizer_Ion_state_n>
3

> <i_ionizer_Tot_Q>
-2

> <s_ionizer_Ion_centers>
33_34

> <s_ionizer_Ion_types>
OM_OM

> <s_ionizer_Ion_ctrs_in>
20_21

> <r_ionizer_Ionization_penalty>
1.49178e-05

> <r_ionizer_Ionization_penalty_charging>
1.49178e-05

> <r_ionizer_Ionization_penalty_neutral>
0

> <s_st_Chirality_1>
12_R_15_14_7_25

> <s_st_Chirality_2>
14_R_17_12_16_28

> <s_st_EZ_1>
1_3_7_12_E

> <i_mmod_Serial_Number-OPLS-2005>
826

> <i_i_glide_lignum>
814

> <r_i_docking_score>
-5.34876

> <r_i_glide_gscore>
-5.34876

> <r_i_glide_lipo>
-0.618082

> <r_i_glide_hbond>
-1.53435

> <r_i_glide_metal>
0

> <r_i_glide_eburp>
-1.26364

> <r_i_glide_evdw>
-28.3958

> <r_i_glide_ecoul>
-12.5576

> <r_i_glide_erotb>
0.775937

> <r_i_glide_esite>
0.818796

> <r_i_glide_emodel>
-82.6705

> <r_i_glide_energy>
-40.9534

> <r_i_glide_einternal>
6.24373

> <i_i_glide_confnum>
7

> <i_i_glide_posenum>
617

$$$$
C00279
                    3D
 Structure written by MMmdl.
 19 18  0  0  1  0            999 V2000
    0.7799    2.2920    3.3155 P   0  0  0  0  0  0
    1.0649    1.2524    4.7488 O   0  0  0  0  0  0
    0.1319    1.3018    2.3217 O   0  0  0  0  0  0
    1.8256    0.0739    4.5315 C   0  0  0  0  0  0
    3.0048    0.3259    3.5696 C   0  0  2  0  0  0
    2.9988   -0.6191    2.3439 C   0  0  2  0  0  0
    4.1939    0.0996    4.3002 O   0  0  0  0  0  0
    3.9492   -0.1450    1.2408 C   0  0  0  0  0  0
    1.6972   -0.6964    1.7939 O   0  0  0  0  0  0
    4.8999    0.5914    1.5017 O   0  0  0  0  0  0
    2.1640   -0.3651    5.4702 H   0  0  0  0  0  0
    1.1349   -0.6463    4.0949 H   0  0  0  0  0  0
    2.9809    1.3619    3.2295 H   0  0  0  0  0  0
    3.2995   -1.6210    2.6519 H   0  0  0  0  0  0
    4.1417   -0.7869    4.6515 H   0  0  0  0  0  0
    3.7307   -0.5017    0.2340 H   0  0  0  0  0  0
    1.4661    0.1588    1.4642 H   0  0  0  0  0  0
   -0.1603    3.3686    3.8997 O   0  5  0  0  0  0
    2.2079    2.7641    2.9633 O   0  5  0  0  0  0
  1  2  1  0  0  0
  1  3  2  0  0  0
  1 18  1  0  0  0
  1 19  1  0  0  0
  2  4  1  0  0  0
  4  5  1  0  0  0
  4 11  1  0  0  0
  4 12  1  0  0  0
  5  6  1  0  0  0
  5  7  1  0  0  0
  5 13  1  0  0  0
  6  8  1  0  0  0
  6  9  1  0  0  0
  6 14  1  0  0  0
  7 15  1  0  0  0
  8 10  2  0  0  0
  8 16  1  0  0  0
  9 17  1  0  0  0
M  CHG  2  18  -1  19  -1
M  END
> <i_ionizer_Ion_state_n>
3

> <i_ionizer_Tot_Q>
-2

> <s_ionizer_Ion_centers>
18_19

> <s_ionizer_Ion_types>
OM_OM

> <s_ionizer_Ion_ctrs_in>
3_4

> <r_ionizer_Ionization_penalty>
1.49178e-05

> <r_ionizer_Ionization_penalty_charging>
1.49178e-05

> <r_ionizer_Ionization_penalty_neutral>
0

> <s_st_Chirality_1>
5_R_7_6_4_13

> <s_st_Chirality_2>
6_R_9_8_5_14

> <i_mmod_Serial_Number-OPLS-2005>
177

> <i_i_glide_lignum>
175

> <r_i_docking_score>
-5.33501

> <r_i_glide_gscore>
-5.33501

> <r_i_glide_lipo>
-0.321842

> <r_i_glide_hbond>
-1.15

> <r_i_glide_metal>
0

> <r_i_glide_eburp>
-2.28735

> <r_i_glide_evdw>
-17.7932

> <r_i_glide_ecoul>
-11.7186

> <r_i_glide_erotb>
1.4228

> <r_i_glide_esite>
-0.403294

> <r_i_glide_emodel>
-55.4544

> <r_i_glide_energy>
-29.5118

> <r_i_glide_einternal>
7.27849

> <i_i_glide_confnum>
13

> <i_i_glide_posenum>
661

$$$$
C00158
                    3D
 Structure written by MMmdl.
 18 17  0  0  1  0            999 V2000
    2.2938    0.9153    2.5498 C   0  0  0  0  0  0
    3.2430    0.9292    1.3097 C   0  0  0  0  0  0
    1.5251    2.2748    2.6204 C   0  0  0  0  0  0
    1.2813   -0.2575    2.4378 C   0  0  0  0  0  0
    3.0713    0.7662    3.7315 O   0  0  0  0  0  0
    4.2360    2.1029    1.2526 C   0  0  0  0  0  0
    0.6008    2.4955    3.8363 C   0  0  0  0  0  0
    1.7072   -1.4056    2.6995 O   0  0  0  0  0  0
    5.0799    2.1007    0.3290 O   0  0  0  0  0  0
    0.5015    1.5934    4.6985 O   0  0  0  0  0  0
    3.8059   -0.0035    1.2518 H   0  0  0  0  0  0
    2.6450    0.9637    0.3983 H   0  0  0  0  0  0
    2.2443    3.0943    2.6212 H   0  0  0  0  0  0
    0.9323    2.4063    1.7138 H   0  0  0  0  0  0
    3.3942   -0.1253    3.7309 H   0  0  0  0  0  0
    0.1084   -0.0042    2.0772 O   0  5  0  0  0  0
    4.0974    3.0150    2.0984 O   0  5  0  0  0  0
    0.0286    3.6060    3.9006 O   0  5  0  0  0  0
  1  2  1  0  0  0
  1  3  1  0  0  0
  1  4  1  0  0  0
  1  5  1  0  0  0
  2  6  1  0  0  0
  2 11  1  0  0  0
  2 12  1  0  0  0
  3  7  1  0  0  0
  3 13  1  0  0  0
  3 14  1  0  0  0
  4  8  2  0  0  0
  4 16  1  0  0  0
  5 15  1  0  0  0
  6  9  2  0  0  0
  6 17  1  0  0  0
  7 10  2  0  0  0
  7 18  1  0  0  0
M  CHG  3  16  -1  17  -1  18  -1
M  END
> <i_ionizer_Ion_state_n>
7

> <i_ionizer_Tot_Q>
-3

> <s_ionizer_Ion_centers>
16_17_18

> <s_ionizer_Ion_types>
OM_OM_OM

> <s_ionizer_Ion_ctrs_in>
8_10_12

> <r_ionizer_Ionization_penalty>
0.00177657

> <r_ionizer_Ionization_penalty_charging>
0.00177657

> <r_ionizer_Ionization_penalty_neutral>
0

> <i_mmod_Serial_Number-OPLS-2005>
114

> <i_i_glide_lignum>
112

> <r_i_docking_score>
-5.33422

> <r_i_glide_gscore>
-5.33422

> <r_i_glide_lipo>
-0.250043

> <r_i_glide_hbond>
-1.03192

> <r_i_glide_metal>
0

> <r_i_glide_eburp>
-2.35528

> <r_i_glide_evdw>
-13.8421

> <r_i_glide_ecoul>
-9.09743

> <r_i_glide_erotb>
1.02433

> <r_i_glide_esite>
-0.704184

> <r_i_glide_emodel>
-56.8468

> <r_i_glide_energy>
-22.9395

> <r_i_glide_einternal>
8.33596

> <i_i_glide_confnum>
9

> <i_i_glide_posenum>
972

$$$$
C01159
                    3D
 Structure written by MMmdl.
 18 17  0  0  1  0            999 V2000
    1.0653   -0.0956    2.6260 P   0  0  0  0  0  0
    2.1768    0.7584    1.5067 O   0  0  0  0  0  0
   -0.2956   -0.0220    1.8976 O   0  0  0  0  0  0
    3.0865    1.6748    2.1091 C   0  0  1  0  0  0
    4.3991    1.7566    1.3109 C   0  0  0  0  0  0
    2.4155    3.0578    2.3013 C   0  0  0  0  0  0
    4.8612    2.9000    1.0931 O   0  0  0  0  0  0
    1.0540    2.9638    2.6993 O   0  0  0  0  0  0
    0.2289    4.5350    2.9491 P   0  0  0  0  0  0
    0.8997    5.0669    4.2360 O   0  0  0  0  0  0
    3.3502    1.2884    3.0944 H   0  0  0  0  0  0
    2.9594    3.6491    3.0370 H   0  0  0  0  0  0
    2.4685    3.6085    1.3617 H   0  0  0  0  0  0
    1.7071   -1.4996    2.6996 O   0  5  0  0  0  0
    1.1822    0.7561    3.9107 O   0  5  0  0  0  0
    4.9550    0.6881    0.9663 O   0  5  0  0  0  0
    0.5668    5.3006    1.6495 O   0  5  0  0  0  0
   -1.2459    4.0980    3.0999 O   0  5  0  0  0  0
  1  2  1  0  0  0
  1  3  2  0  0  0
  1 14  1  0  0  0
  1 15  1  0  0  0
  2  4  1  0  0  0
  4  5  1  0  0  0
  4  6  1  0  0  0
  4 11  1  0  0  0
  5  7  2  0  0  0
  5 16  1  0  0  0
  6  8  1  0  0  0
  6 12  1  0  0  0
  6 13  1  0  0  0
  8  9  1  0  0  0
  9 10  2  0  0  0
  9 17  1  0  0  0
  9 18  1  0  0  0
M  CHG  5  14  -1  15  -1  16  -1  17  -1  18  -1
M  END
> <i_ionizer_Ion_state_n>
31

> <i_ionizer_Tot_Q>
-5

> <s_ionizer_Ion_centers>
14_15_16_17_18

> <s_ionizer_Ion_types>
OM_OM_OM_OM_OM

> <s_ionizer_Ion_ctrs_in>
3_4_9_13_14

> <r_ionizer_Ionization_penalty>
0.000622025

> <r_ionizer_Ionization_penalty_charging>
0.000622025

> <r_ionizer_Ionization_penalty_neutral>
0

> <s_st_Chirality_1>
4_R_2_5_6_11

> <i_mmod_Serial_Number-OPLS-2005>
406

> <i_i_glide_lignum>
402

> <r_i_docking_score>
-5.33154

> <r_i_glide_gscore>
-5.33154

> <r_i_glide_lipo>
-0.147177

> <r_i_glide_hbond>
-1.72042

> <r_i_glide_metal>
0

> <r_i_glide_eburp>
-1.81061

> <r_i_glide_evdw>
-14.5876

> <r_i_glide_ecoul>
-9.19036

> <r_i_glide_erotb>
0.891527

> <r_i_glide_esite>
-0.458818

> <r_i_glide_emodel>
-69.2198

> <r_i_glide_energy>
-23.778

> <r_i_glide_einternal>
4.73302

> <i_i_glide_confnum>
3

> <i_i_glide_posenum>
614

$$$$
C00111
                    3D
 Structure written by MMmdl.
 15 14  0  0  1  0            999 V2000
    0.0187    3.9599    2.8310 P   0  0  0  0  0  0
    0.2466    2.2232    2.4856 O   0  0  0  0  0  0
    0.9351    4.6155    1.7736 O   0  0  0  0  0  0
    1.5148    1.7336    2.8766 C   0  0  0  0  0  0
    1.5548    0.2117    2.7596 C   0  0  0  0  0  0
    2.8015   -0.4701    3.3303 C   0  0  0  0  0  0
    0.6383   -0.4255    2.2373 O   0  0  0  0  0  0
    2.9078   -0.2854    4.7294 O   0  0  0  0  0  0
    2.2901    2.1660    2.2440 H   0  0  0  0  0  0
    1.7223    2.0231    3.9069 H   0  0  0  0  0  0
    2.7614   -1.5366    3.1083 H   0  0  0  0  0  0
    3.6881   -0.0636    2.8435 H   0  0  0  0  0  0
    3.5905   -0.8502    5.0571 H   0  0  0  0  0  0
   -1.5002    4.1248    2.6054 O   0  5  0  0  0  0
    0.4998    4.0566    4.2963 O   0  5  0  0  0  0
  1  2  1  0  0  0
  1  3  2  0  0  0
  1 14  1  0  0  0
  1 15  1  0  0  0
  2  4  1  0  0  0
  4  5  1  0  0  0
  4  9  1  0  0  0
  4 10  1  0  0  0
  5  6  1  0  0  0
  5  7  2  0  0  0
  6  8  1  0  0  0
  6 11  1  0  0  0
  6 12  1  0  0  0
  8 13  1  0  0  0
M  CHG  2  14  -1  15  -1
M  END
> <i_ionizer_Ion_state_n>
3

> <i_ionizer_Tot_Q>
-2

> <s_ionizer_Ion_centers>
14_15

> <s_ionizer_Ion_types>
OM_OM

> <s_ionizer_Ion_ctrs_in>
3_4

> <r_ionizer_Ionization_penalty>
1.49178e-05

> <r_ionizer_Ionization_penalty_charging>
1.49178e-05

> <r_ionizer_Ionization_penalty_neutral>
0

> <i_mmod_Serial_Number-OPLS-2005>
79

> <i_i_glide_lignum>
78

> <r_i_docking_score>
-5.32701

> <r_i_glide_gscore>
-5.32701

> <r_i_glide_lipo>
-0.152973

> <r_i_glide_hbond>
-1.81396

> <r_i_glide_metal>
0

> <r_i_glide_eburp>
-2.9

> <r_i_glide_evdw>
-11.6548

> <r_i_glide_ecoul>
-11.4892

> <r_i_glide_erotb>
1.86489

> <r_i_glide_esite>
-0.243658

> <r_i_glide_emodel>
-52.1176

> <r_i_glide_energy>
-23.1439

> <r_i_glide_einternal>
0.966604

> <i_i_glide_confnum>
1

> <i_i_glide_posenum>
552

$$$$
C00117
                    3D
 Structure written by MMmdl.
 23 23  0  0  1  0            999 V2000
   -0.1023    4.8053    2.5865 P   0  0  0  0  0  0
    0.9619    3.4016    2.2508 O   0  0  0  0  0  0
    0.1117    5.6996    1.3455 O   0  0  0  0  0  0
    0.7964    2.2835    3.1077 C   0  0  0  0  0  0
    2.1553    1.7537    3.5978 C   0  0  2  0  0  0
    2.9147    0.9531    2.5275 C   0  0  2  0  0  0
    1.9512    0.8388    4.6783 O   0  0  0  0  0  0
    3.4562   -0.2506    3.2910 C   0  0  2  0  0  0
    3.9308    1.6959    1.8792 O   0  0  0  0  0  0
    2.3630   -0.4482    4.3393 C   0  0  2  0  0  0
    4.7129   -0.0085    3.8989 O   0  0  0  0  0  0
    1.3019   -1.2011    3.7921 O   0  0  0  0  0  0
    0.2594    1.4942    2.5799 H   0  0  0  0  0  0
    0.1709    2.5723    3.9523 H   0  0  0  0  0  0
    2.7825    2.5627    3.9715 H   0  0  0  0  0  0
    2.2142    0.5945    1.7716 H   0  0  0  0  0  0
    3.5488   -1.1351    2.6591 H   0  0  0  0  0  0
    4.3503    1.1374    1.2438 H   0  0  0  0  0  0
    2.7090   -0.9763    5.2285 H   0  0  0  0  0  0
    4.8999   -0.7120    4.5006 H   0  0  0  0  0  0
    0.7658   -1.5130    4.5047 H   0  0  0  0  0  0
   -1.4867    4.1285    2.7000 O   0  5  0  0  0  0
    0.4960    5.3357    3.9080 O   0  5  0  0  0  0
  1  2  1  0  0  0
  1  3  2  0  0  0
  1 22  1  0  0  0
  1 23  1  0  0  0
  2  4  1  0  0  0
  4  5  1  0  0  0
  4 13  1  0  0  0
  4 14  1  0  0  0
  5  6  1  0  0  0
  5  7  1  0  0  0
  5 15  1  0  0  0
  6  8  1  0  0  0
  6  9  1  0  0  0
  6 16  1  0  0  0
  7 10  1  0  0  0
  8 11  1  0  0  0
  8 10  1  0  0  0
  8 17  1  0  0  0
  9 18  1  0  0  0
 10 12  1  0  0  0
 10 19  1  0  0  0
 11 20  1  0  0  0
 12 21  1  0  0  0
M  CHG  2  22  -1  23  -1
M  END
> <i_ionizer_Ion_state_n>
3

> <i_ionizer_Tot_Q>
-2

> <s_ionizer_Ion_centers>
22_23

> <s_ionizer_Ion_types>
OM_OM

> <s_ionizer_Ion_ctrs_in>
3_4

> <r_ionizer_Ionization_penalty>
1.49178e-05

> <r_ionizer_Ionization_penalty_charging>
1.49178e-05

> <r_ionizer_Ionization_penalty_neutral>
0

> <s_st_Chirality_1>
5_R_7_6_4_15

> <s_st_Chirality_2>
6_R_9_8_5_16

> <s_st_Chirality_3>
8_R_11_10_6_17

> <s_st_Chirality_4>
10_R_7_12_8_19

> <i_mmod_Serial_Number-OPLS-2005>
83

> <i_i_glide_lignum>
82

> <r_i_docking_score>
-5.32355

> <r_i_glide_gscore>
-5.32355

> <r_i_glide_lipo>
-0.361497

> <r_i_glide_hbond>
-1.29609

> <r_i_glide_metal>
0

> <r_i_glide_eburp>
-2.05988

> <r_i_glide_evdw>
-20.5825

> <r_i_glide_ecoul>
-9.13223

> <r_i_glide_erotb>
0.748286

> <r_i_glide_esite>
0.20545

> <r_i_glide_emodel>
-61.3559

> <r_i_glide_energy>
-29.7147

> <r_i_glide_einternal>
5.63987

> <i_i_glide_confnum>
7

> <i_i_glide_posenum>
401

$$$$
C01031
                    3D
 Structure written by MMmdl.
 38 37  0  0  1  0            999 V2000
    2.4581    2.7599    2.1830 C   0  0  1  0  0  0
    1.3389    2.7460    3.2513 C   0  0  0  0  0  0
    2.7947    4.0792    1.6294 N   0  0  0  0  0  0
    3.7642    2.0662    2.6332 C   0  0  0  0  0  0
    1.2701    1.6840    4.0713 N   0  0  0  0  0  0
    0.5677    3.7017    3.3298 O   0  0  0  0  0  0
    1.9499    5.0965    1.4328 C   0  0  0  0  0  0
    4.4837    2.8721    4.1036 S   0  0  0  0  0  0
    2.1704    0.5356    4.0652 C   0  0  0  0  0  0
    1.2799    6.4336    1.0327 C   0  0  0  0  0  0
    2.9278    5.4972    0.7976 O   0  0  0  0  0  0
    5.5705    1.5409    4.6578 C   0  0  0  0  0  0
    1.3830   -0.7330    3.7429 C   0  0  0  0  0  0
    0.0977    6.7145    1.9903 C   0  0  0  0  0  0
    5.7005    1.3006    5.8557 O   0  0  0  0  0  0
    1.6977   -1.3540    2.7047 O   0  0  0  0  0  0
   -1.1672    7.2599    1.2882 C   0  0  1  0  0  0
   -2.4239    6.4804    1.7038 C   0  0  0  0  0  0
   -3.4976    7.1164    1.8062 O   0  0  0  0  0  0
    2.0704    2.1948    1.3335 H   0  0  0  0  0  0
    3.7511    4.2379    1.3495 H   0  0  0  0  0  0
    3.5433    1.0385    2.9240 H   0  0  0  0  0  0
    4.4864    2.0016    1.8184 H   0  0  0  0  0  0
    0.4963    1.6363    4.7187 H   0  0  0  0  0  0
    2.9899    0.6536    3.3543 H   0  0  0  0  0  0
    2.6205    0.4347    5.0530 H   0  0  0  0  0  0
    1.9706    7.2836    1.1116 H   0  0  0  0  0  0
    0.8890    6.4263    0.0089 H   0  0  0  0  0  0
    6.1060    0.9620    3.9054 H   0  0  0  0  0  0
   -0.1378    5.8054    2.5460 H   0  0  0  0  0  0
    0.3914    7.4335    2.7565 H   0  0  0  0  0  0
   -1.0355    7.2011    0.2063 H   0  0  0  0  0  0
   -2.1759    9.0247    1.1092 H   0  0  0  0  0  0
   -1.5097    8.7843    2.5987 H   0  0  0  0  0  0
    0.5056   -1.0937    4.5582 O   0  5  0  0  0  0
   -1.3648    8.6848    1.6045 N   0  3  0  0  0  0
   -0.5459    9.2091    1.3190 H   0  0  0  0  0  0
   -2.2930    5.2530    1.9023 O   0  5  0  0  0  0
  1  2  1  0  0  0
  1  3  1  0  0  0
  1  4  1  0  0  0
  1 20  1  0  0  0
  2  5  1  0  0  0
  2  6  2  0  0  0
  3  7  1  0  0  0
  3 21  1  0  0  0
  4  8  1  0  0  0
  4 22  1  0  0  0
  4 23  1  0  0  0
  5  9  1  0  0  0
  5 24  1  0  0  0
  7 10  1  0  0  0
  7 11  2  0  0  0
  8 12  1  0  0  0
  9 13  1  0  0  0
  9 25  1  0  0  0
  9 26  1  0  0  0
 10 14  1  0  0  0
 10 27  1  0  0  0
 10 28  1  0  0  0
 12 15  2  0  0  0
 12 29  1  0  0  0
 13 16  2  0  0  0
 13 35  1  0  0  0
 14 17  1  0  0  0
 14 30  1  0  0  0
 14 31  1  0  0  0
 17 18  1  0  0  0
 17 32  1  0  0  0
 17 36  1  0  0  0
 18 19  2  0  0  0
 18 38  1  0  0  0
 33 36  1  0  0  0
 34 36  1  0  0  0
 36 37  1  0  0  0
M  CHG  3  35  -1  36   1  38  -1
M  END
> <i_ionizer_Ion_state_n>
7

> <i_ionizer_Tot_Q>
-1

> <s_ionizer_Ion_centers>
35_36_38

> <s_ionizer_Ion_types>
OM_N5_OM

> <s_ionizer_Ion_ctrs_in>
16_20_21

> <r_ionizer_Ionization_penalty>
0.00137171

> <r_ionizer_Ionization_penalty_charging>
0.00137171

> <r_ionizer_Ionization_penalty_neutral>
0

> <s_st_Chirality_1>
1_R_3_4_2_20

> <s_st_Chirality_2>
17_S_36_18_14_32

> <i_mmod_Serial_Number-OPLS-2005>
375

> <i_i_glide_lignum>
371

> <r_i_docking_score>
-5.32288

> <r_i_glide_gscore>
-5.32288

> <r_i_glide_lipo>
-0.389487

> <r_i_glide_hbond>
-1.05124

> <r_i_glide_metal>
0

> <r_i_glide_eburp>
-1.25508

> <r_i_glide_evdw>
-34.8102

> <r_i_glide_ecoul>
-9.86834

> <r_i_glide_erotb>
1.92825

> <r_i_glide_esite>
-0.783676

> <r_i_glide_emodel>
-90.3838

> <r_i_glide_energy>
-44.6786

> <r_i_glide_einternal>
17.5325

> <i_i_glide_confnum>
116

> <i_i_glide_posenum>
98

$$$$
C04751
                    3D
 Structure written by MMmdl.
 34 35  0  0  1  0            999 V2000
    4.0953   -0.2987    0.6559 N   0  0  0  0  0  0
    2.7163   -0.2168    1.2360 C   0  0  2  0  0  0
    5.0672    0.6694    0.5464 C   0  0  0  0  0  0
    4.6790   -1.3855    0.0797 C   0  0  0  0  0  0
    2.2792    1.1087    1.1280 O   0  0  0  0  0  0
    2.7755   -0.5633    2.7269 C   0  0  1  0  0  0
    6.1799    0.1248   -0.0795 C   0  0  0  0  0  0
    4.9013    1.9289    0.9871 N   0  0  0  0  0  0
    2.1258    1.7046    2.4173 C   0  0  1  0  0  0
    2.9532    0.8113    3.3467 C   0  0  1  0  0  0
    1.5885   -1.2063    3.1494 O   0  0  0  0  0  0
    7.4804    0.7949   -0.4159 C   0  0  0  0  0  0
    2.5423    3.1850    2.3632 C   0  0  0  0  0  0
    2.5290    0.8656    4.6948 O   0  0  0  0  0  0
    8.5013    0.0957   -0.6004 O   0  0  0  0  0  0
    1.4738    3.9890    1.8920 O   0  0  0  0  0  0
    0.2272    4.4112    3.1111 P   0  0  0  0  0  0
   -0.9926    4.7809    2.2358 O   0  0  0  0  0  0
    2.1176   -0.8985    0.6309 H   0  0  0  0  0  0
    4.1776   -2.3320   -0.0086 H   0  0  0  0  0  0
    3.6167   -1.2226    2.9472 H   0  0  0  0  0  0
    5.6420    2.6092    0.8696 H   0  0  0  0  0  0
    4.0414    2.2501    1.4077 H   0  0  0  0  0  0
    1.0745    1.6280    2.7000 H   0  0  0  0  0  0
    4.0064    1.0789    3.2995 H   0  0  0  0  0  0
    1.6762   -1.3838    4.0748 H   0  0  0  0  0  0
    2.8750    3.5223    3.3445 H   0  0  0  0  0  0
    3.4002    3.3088    1.7027 H   0  0  0  0  0  0
    2.9519    0.1501    5.1506 H   0  0  0  0  0  0
    5.9116   -1.1884   -0.3719 N   0  3  0  0  0  0
    6.5184   -1.8515   -0.8375 H   0  0  0  0  0  0
    7.4870    2.0430   -0.4998 O   0  5  0  0  0  0
    0.1115    3.0902    3.9021 O   0  5  0  0  0  0
    0.9096    5.5869    3.8423 O   0  5  0  0  0  0
  1  2  1  0  0  0
  1  3  1  0  0  0
  1  4  1  0  0  0
  2  5  1  0  0  0
  2  6  1  0  0  0
  2 19  1  0  0  0
  3  7  2  0  0  0
  3  8  1  0  0  0
  4 20  1  0  0  0
  4 30  2  0  0  0
  5  9  1  0  0  0
  6 10  1  0  0  0
  6 11  1  0  0  0
  6 21  1  0  0  0
  7 12  1  0  0  0
  7 30  1  0  0  0
  8 22  1  0  0  0
  8 23  1  0  0  0
  9 13  1  0  0  0
  9 10  1  0  0  0
  9 24  1  0  0  0
 10 14  1  0  0  0
 10 25  1  0  0  0
 11 26  1  0  0  0
 12 15  2  0  0  0
 12 32  1  0  0  0
 13 16  1  0  0  0
 13 27  1  0  0  0
 13 28  1  0  0  0
 14 29  1  0  0  0
 16 17  1  0  0  0
 17 18  2  0  0  0
 17 33  1  0  0  0
 17 34  1  0  0  0
 30 31  1  0  0  0
M  CHG  4  30   1  32  -1  33  -1  34  -1
M  END
> <i_ionizer_Ion_state_n>
15

> <i_ionizer_Tot_Q>
-2

> <s_ionizer_Ion_centers>
30_32_33_34

> <s_ionizer_Ion_types>
N4_OM_OM_OM

> <s_ionizer_Ion_ctrs_in>
9_16_20_21

> <r_ionizer_Ionization_penalty>
0.411287

> <r_ionizer_Ionization_penalty_charging>
0.411287

> <r_ionizer_Ionization_penalty_neutral>
0

> <s_st_Chirality_1>
2_R_5_1_6_19

> <s_st_Chirality_2>
6_R_11_2_10_21

> <s_st_Chirality_3>
9_R_5_10_13_24

> <s_st_Chirality_4>
10_R_14_6_9_25

> <i_mmod_Serial_Number-OPLS-2005>
611

> <i_i_glide_lignum>
605

> <r_i_docking_score>
-5.31541

> <r_i_glide_gscore>
-5.31541

> <r_i_glide_lipo>
-0.581791

> <r_i_glide_hbond>
-0.803869

> <r_i_glide_metal>
0

> <r_i_glide_eburp>
-1.23345

> <r_i_glide_evdw>
-22.9299

> <r_i_glide_ecoul>
-8.04372

> <r_i_glide_erotb>
0.569832

> <r_i_glide_esite>
-0.627369

> <r_i_glide_emodel>
-80.2067

> <r_i_glide_energy>
-30.9736

> <r_i_glide_einternal>
10.9336

> <i_i_glide_confnum>
15

> <i_i_glide_posenum>
17

$$$$
C06452
                    3D
 Structure written by MMmdl.
 15 14  0  0  1  0            999 V2000
    0.9406    2.1703    3.3209 P   0  0  0  0  0  0
    1.3806    0.9075    4.6725 C   0  0  0  0  0  0
    0.1718    1.2994    2.3002 O   0  0  0  0  0  0
    2.2596   -0.2782    4.2145 C   0  0  1  0  0  0
    1.9777   -0.8003    2.7979 C   0  0  0  0  0  0
    3.6179    0.0994    4.2921 O   0  0  0  0  0  0
    1.8799    1.4126    5.4996 H   0  0  0  0  0  0
    0.4556    0.5141    5.0936 H   0  0  0  0  0  0
    2.1166   -1.0995    4.9172 H   0  0  0  0  0  0
    2.5599   -1.6988    2.5923 H   0  0  0  0  0  0
    0.9244   -1.0548    2.6786 H   0  0  0  0  0  0
    2.2339   -0.0665    2.0335 H   0  0  0  0  0  0
    4.1031   -0.6631    4.5866 H   0  0  0  0  0  0
    0.1003    3.2148    4.0890 O   0  5  0  0  0  0
    2.3404    2.6459    2.8735 O   0  5  0  0  0  0
  1  2  1  0  0  0
  1  3  2  0  0  0
  1 14  1  0  0  0
  1 15  1  0  0  0
  2  4  1  0  0  0
  2  7  1  0  0  0
  2  8  1  0  0  0
  4  5  1  0  0  0
  4  6  1  0  0  0
  4  9  1  0  0  0
  5 10  1  0  0  0
  5 11  1  0  0  0
  5 12  1  0  0  0
  6 13  1  0  0  0
M  CHG  2  14  -1  15  -1
M  END
> <i_ionizer_Ion_state_n>
3

> <i_ionizer_Tot_Q>
-2

> <s_ionizer_Ion_centers>
14_15

> <s_ionizer_Ion_types>
OM_OM

> <s_ionizer_Ion_ctrs_in>
3_4

> <r_ionizer_Ionization_penalty>
3.74715e-05

> <r_ionizer_Ionization_penalty_charging>
3.74715e-05

> <r_ionizer_Ionization_penalty_neutral>
0

> <s_st_Chirality_1>
4_R_6_2_5_9

> <i_mmod_Serial_Number-OPLS-2005>
872

> <i_i_glide_lignum>
860

> <r_i_docking_score>
-5.29978

> <r_i_glide_gscore>
-5.29978

> <r_i_glide_lipo>
-0.336169

> <r_i_glide_hbond>
-1.15

> <r_i_glide_metal>
0

> <r_i_glide_eburp>
-2.5

> <r_i_glide_evdw>
-11.5482

> <r_i_glide_ecoul>
-7.81405

> <r_i_glide_erotb>
0.851923

> <r_i_glide_esite>
-0.460278

> <r_i_glide_emodel>
-45.2038

> <r_i_glide_energy>
-19.3622

> <r_i_glide_einternal>
2.52802

> <i_i_glide_confnum>
3

> <i_i_glide_posenum>
975

$$$$
C00352
                    3D
 Structure written by MMmdl.
 29 29  0  0  1  0            999 V2000
   -0.2660    4.9441    3.0417 P   0  0  0  0  0  0
    0.9239    4.8518    1.6949 O   0  0  0  0  0  0
   -1.6204    4.8842    2.3000 O   0  0  0  0  0  0
    2.2865    4.6149    2.0317 C   0  0  0  0  0  0
    2.4560    3.3394    2.8777 C   0  0  2  0  0  0
    3.8926    3.0746    3.3760 C   0  0  2  0  0  0
    2.0876    2.2367    2.0508 O   0  0  0  0  0  0
    3.9432    1.7152    4.1051 C   0  0  1  0  0  0
    4.2633    4.0799    4.2998 O   0  0  0  0  0  0
    1.9693    1.0111    2.6975 C   0  0  1  0  0  0
    3.3672    0.5985    3.2045 C   0  0  2  0  0  0
    5.2987    1.4159    4.3910 O   0  0  0  0  0  0
    1.0202    1.0386    3.7431 O   0  0  0  0  0  0
    2.6093    5.4856    2.6017 H   0  0  0  0  0  0
    2.9108    4.5881    1.1381 H   0  0  0  0  0  0
    1.7978    3.4260    3.7437 H   0  0  0  0  0  0
    4.5841    3.0840    2.5319 H   0  0  0  0  0  0
    3.3835    1.7744    5.0404 H   0  0  0  0  0  0
    4.2267    4.9132    3.8548 H   0  0  0  0  0  0
    1.5979    0.3022    1.9566 H   0  0  0  0  0  0
    4.0045    0.4779    2.3268 H   0  0  0  0  0  0
    5.3495    0.5580    4.7840 H   0  0  0  0  0  0
    1.4520    1.4255    4.5001 H   0  0  0  0  0  0
    2.9414   -1.3999    3.2686 H   0  0  0  0  0  0
    4.2233   -0.9648    4.2136 H   0  0  0  0  0  0
    0.0982    3.7065    3.8972 O   0  5  0  0  0  0
    0.0900    6.3102    3.6670 O   0  5  0  0  0  0
    3.3012   -0.6995    3.9005 N   0  3  0  0  0  0
    2.6777   -0.6123    4.6908 H   0  0  0  0  0  0
  1  2  1  0  0  0
  1  3  2  0  0  0
  1 26  1  0  0  0
  1 27  1  0  0  0
  2  4  1  0  0  0
  4  5  1  0  0  0
  4 14  1  0  0  0
  4 15  1  0  0  0
  5  6  1  0  0  0
  5  7  1  0  0  0
  5 16  1  0  0  0
  6  8  1  0  0  0
  6  9  1  0  0  0
  6 17  1  0  0  0
  7 10  1  0  0  0
  8 11  1  0  0  0
  8 12  1  0  0  0
  8 18  1  0  0  0
  9 19  1  0  0  0
 10 13  1  0  0  0
 10 11  1  0  0  0
 10 20  1  0  0  0
 11 21  1  0  0  0
 11 28  1  0  0  0
 12 22  1  0  0  0
 13 23  1  0  0  0
 24 28  1  0  0  0
 25 28  1  0  0  0
 28 29  1  0  0  0
M  CHG  3  26  -1  27  -1  28   1
M  END
> <i_ionizer_Ion_state_n>
7

> <i_ionizer_Tot_Q>
-1

> <s_ionizer_Ion_centers>
26_27_28

> <s_ionizer_Ion_types>
OM_OM_N5

> <s_ionizer_Ion_ctrs_in>
3_4_16

> <r_ionizer_Ionization_penalty>
0.000202249

> <r_ionizer_Ionization_penalty_charging>
0.000202249

> <r_ionizer_Ionization_penalty_neutral>
0

> <s_st_Chirality_1>
5_R_7_6_4_16

> <s_st_Chirality_2>
6_S_9_5_8_17

> <s_st_Chirality_3>
8_R_12_6_11_18

> <s_st_Chirality_4>
10_S_7_13_11_20

> <s_st_Chirality_5>
11_R_28_10_8_21

> <i_mmod_Serial_Number-OPLS-2005>
202

> <i_i_glide_lignum>
200

> <r_i_docking_score>
-5.29869

> <r_i_glide_gscore>
-5.29869

> <r_i_glide_lipo>
-0.43138

> <r_i_glide_hbond>
-1.51534

> <r_i_glide_metal>
0

> <r_i_glide_eburp>
-2.23223

> <r_i_glide_evdw>
-21.0673

> <r_i_glide_ecoul>
-7.00812

> <r_i_glide_erotb>
0.605706

> <r_i_glide_esite>
0.660739

> <r_i_glide_emodel>
-65.6285

> <r_i_glide_energy>
-28.0754

> <r_i_glide_einternal>
4.15568

> <i_i_glide_confnum>
3

> <i_i_glide_posenum>
968

$$$$
C00141
                    3D
 Structure written by MMmdl.
 15 14  0  0  1  0            999 V2000
    0.9607    1.7366    3.3409 C   0  0  0  0  0  0
    2.0927    1.0303    4.1161 C   0  0  0  0  0  0
    0.8292    3.2685    3.4992 C   0  0  0  0  0  0
    0.1823    1.0983    2.6291 O   0  0  0  0  0  0
    1.7092   -0.4055    4.5220 C   0  0  0  0  0  0
    3.4040    1.0369    3.3097 C   0  0  0  0  0  0
   -0.2994    3.6985    3.8271 O   0  0  0  0  0  0
    2.2577    1.5879    5.0387 H   0  0  0  0  0  0
    2.4833   -0.8531    5.1458 H   0  0  0  0  0  0
    0.7810   -0.4228    5.0946 H   0  0  0  0  0  0
    1.5770   -1.0475    3.6501 H   0  0  0  0  0  0
    4.2097    0.5660    3.8733 H   0  0  0  0  0  0
    3.2962    0.4935    2.3702 H   0  0  0  0  0  0
    3.7271    2.0513    3.0729 H   0  0  0  0  0  0
    1.8684    3.9309    3.2828 O   0  5  0  0  0  0
  1  2  1  0  0  0
  1  3  1  0  0  0
  1  4  2  0  0  0
  2  5  1  0  0  0
  2  6  1  0  0  0
  2  8  1  0  0  0
  3  7  2  0  0  0
  3 15  1  0  0  0
  5  9  1  0  0  0
  5 10  1  0  0  0
  5 11  1  0  0  0
  6 12  1  0  0  0
  6 13  1  0  0  0
  6 14  1  0  0  0
M  CHG  1  15  -1
M  END
> <i_ionizer_Ion_state_n>
1

> <i_ionizer_Tot_Q>
-1

> <s_ionizer_Ion_centers>
15

> <s_ionizer_Ion_types>
OM

> <s_ionizer_Ion_ctrs_in>
7

> <r_ionizer_Ionization_penalty>
0.00059219

> <r_ionizer_Ionization_penalty_charging>
0.00059219

> <r_ionizer_Ionization_penalty_neutral>
0

> <i_mmod_Serial_Number-OPLS-2005>
103

> <i_i_glide_lignum>
101

> <r_i_docking_score>
-5.29127

> <r_i_glide_gscore>
-5.29127

> <r_i_glide_lipo>
-0.27486

> <r_i_glide_hbond>
-0.7

> <r_i_glide_metal>
0

> <r_i_glide_eburp>
-2.5

> <r_i_glide_evdw>
-11.4225

> <r_i_glide_ecoul>
-4.61224

> <r_i_glide_erotb>
0

> <r_i_glide_esite>
-0.441389

> <r_i_glide_emodel>
-34.0088

> <r_i_glide_energy>
-16.0347

> <r_i_glide_einternal>
1.84313

> <i_i_glide_confnum>
1

> <i_i_glide_posenum>
256

$$$$
C05827
                    3D
 Structure written by MMmdl.
 18 18  0  0  1  0            999 V2000
    3.7618    0.5717    3.8053 C   0  0  0  0  0  0
    3.5706    1.9110    3.5661 C   0  0  0  0  0  0
    3.0536   -0.6379    3.2872 C   0  0  0  0  0  0
    4.5029    2.5884    4.3071 N   0  0  0  0  0  0
    5.2564    1.7229    4.9925 C   0  0  0  0  0  0
    1.5381   -0.4590    3.3019 C   0  0  0  0  0  0
    4.7008    4.0340    4.3860 C   0  0  0  0  0  0
    0.8693   -0.6986    2.2992 O   0  0  0  0  0  0
    2.8548    2.4195    2.9359 H   0  0  0  0  0  0
    3.3837   -0.8507    2.2697 H   0  0  0  0  0  0
    3.3185   -1.5000    3.9002 H   0  0  0  0  0  0
    6.0660    1.9637    5.6587 H   0  0  0  0  0  0
    1.1057   -0.1133    4.2413 H   0  0  0  0  0  0
    5.7109    4.2777    4.0553 H   0  0  0  0  0  0
    3.9771    4.5381    3.7446 H   0  0  0  0  0  0
    4.5616    4.3605    5.4172 H   0  0  0  0  0  0
    4.8083    0.5000    4.6911 N   0  3  0  0  0  0
    5.1909   -0.3585    5.0682 H   0  0  0  0  0  0
  1  2  2  0  0  0
  1  3  1  0  0  0
  1 17  1  0  0  0
  2  4  1  0  0  0
  2  9  1  0  0  0
  3  6  1  0  0  0
  3 10  1  0  0  0
  3 11  1  0  0  0
  4  7  1  0  0  0
  4  5  1  0  0  0
  5 12  1  0  0  0
  5 17  2  0  0  0
  6  8  2  0  0  0
  6 13  1  0  0  0
  7 14  1  0  0  0
  7 15  1  0  0  0
  7 16  1  0  0  0
 17 18  1  0  0  0
M  CHG  1  17   1
M  END
> <i_ionizer_Ion_state_n>
1

> <i_ionizer_Tot_Q>
1

> <s_ionizer_Ion_centers>
17

> <s_ionizer_Ion_types>
N4

> <s_ionizer_Ion_ctrs_in>
3

> <r_ionizer_Ionization_penalty>
0.41068

> <r_ionizer_Ionization_penalty_charging>
0.41068

> <r_ionizer_Ionization_penalty_neutral>
0

> <i_mmod_Serial_Number-OPLS-2005>
801

> <i_i_glide_lignum>
792

> <r_i_docking_score>
-5.29057

> <r_i_glide_gscore>
-5.29057

> <r_i_glide_lipo>
-0.385698

> <r_i_glide_hbond>
-0.458286

> <r_i_glide_metal>
0

> <r_i_glide_eburp>
-2.5

> <r_i_glide_evdw>
-18.9752

> <r_i_glide_ecoul>
-3.99241

> <r_i_glide_erotb>
0.993682

> <r_i_glide_esite>
-1.02301

> <r_i_glide_emodel>
-33.148

> <r_i_glide_energy>
-22.9676

> <r_i_glide_einternal>
0.441392

> <i_i_glide_confnum>
3

> <i_i_glide_posenum>
936

$$$$
C00121
                    3D
 Structure written by MMmdl.
 20 20  0  0  1  0            999 V2000
    3.5533    1.1333    4.1392 C   0  0  2  0  0  0
    2.7444   -0.1712    4.0792 C   0  0  2  0  0  0
    3.2139    1.8280    2.9279 O   0  0  0  0  0  0
    5.0503    0.8489    4.3445 C   0  0  0  0  0  0
    2.5831   -0.3968    2.5921 C   0  0  2  0  0  0
    1.5127   -0.1004    4.7730 O   0  0  0  0  0  0
    2.5547    1.0154    2.0196 C   0  0  2  0  0  0
    5.3034    0.5000    5.6894 O   0  0  0  0  0  0
    1.3885   -1.0999    2.3000 O   0  0  0  0  0  0
    3.1261    1.0310    0.7293 O   0  0  0  0  0  0
    3.1596    1.7467    4.9517 H   0  0  0  0  0  0
    3.3370   -0.9828    4.5047 H   0  0  0  0  0  0
    5.3580    0.0043    3.7271 H   0  0  0  0  0  0
    5.6595    1.7044    4.0509 H   0  0  0  0  0  0
    3.4234   -0.9645    2.1898 H   0  0  0  0  0  0
    1.6719   -0.2906    5.6847 H   0  0  0  0  0  0
    1.5340    1.3888    1.9279 H   0  0  0  0  0  0
    5.0586   -0.4037    5.8177 H   0  0  0  0  0  0
    0.6631   -0.6480    2.7028 H   0  0  0  0  0  0
    3.9134    0.5086    0.7508 H   0  0  0  0  0  0
  1  2  1  0  0  0
  1  3  1  0  0  0
  1  4  1  0  0  0
  1 11  1  0  0  0
  2  5  1  0  0  0
  2  6  1  0  0  0
  2 12  1  0  0  0
  3  7  1  0  0  0
  4  8  1  0  0  0
  4 13  1  0  0  0
  4 14  1  0  0  0
  5  9  1  0  0  0
  5  7  1  0  0  0
  5 15  1  0  0  0
  6 16  1  0  0  0
  7 10  1  0  0  0
  7 17  1  0  0  0
  8 18  1  0  0  0
  9 19  1  0  0  0
 10 20  1  0  0  0
M  END
> <i_ionizer_Ion_state_n>
0

> <i_ionizer_Tot_Q>
0

> <s_ionizer_Ion_centers>


> <s_ionizer_Ion_types>


> <s_ionizer_Ion_ctrs_in>


> <r_ionizer_Ionization_penalty>
0

> <r_ionizer_Ionization_penalty_charging>
0

> <r_ionizer_Ionization_penalty_neutral>
0

> <s_st_Chirality_1>
1_R_3_2_4_11

> <s_st_Chirality_2>
2_R_6_5_1_12

> <s_st_Chirality_3>
5_R_9_7_2_15

> <s_st_Chirality_4>
7_R_3_10_5_17

> <i_mmod_Serial_Number-OPLS-2005>
87

> <i_i_glide_lignum>
86

> <r_i_docking_score>
-5.29036

> <r_i_glide_gscore>
-5.29036

> <r_i_glide_lipo>
-0.401155

> <r_i_glide_hbond>
-1.07269

> <r_i_glide_metal>
0

> <r_i_glide_eburp>
-2.5

> <r_i_glide_evdw>
-13.8836

> <r_i_glide_ecoul>
-10.6606

> <r_i_glide_erotb>
0.745613

> <r_i_glide_esite>
0.11462

> <r_i_glide_emodel>
-30.3726

> <r_i_glide_energy>
-24.5442

> <r_i_glide_einternal>
1.57934

> <i_i_glide_confnum>
4

> <i_i_glide_posenum>
190

$$$$
C05396
                    3D
 Structure written by MMmdl.
 48 49  0  0  1  0            999 V2000
    1.0919    4.0685    2.2502 C   0  0  1  0  0  0
    1.9284    5.1824    1.5810 C   0  0  2  0  0  0
    1.8424    3.6252    3.3772 O   0  0  0  0  0  0
   -0.2386    4.6475    2.7711 C   0  0  1  0  0  0
    1.1274    5.8136    0.5879 O   0  0  0  0  0  0
    3.1821    4.6385    0.8741 C   0  0  0  0  0  0
    2.4459    2.3787    3.2279 C   0  0  2  0  0  0
   -0.9588    5.4721    1.6842 C   0  0  2  0  0  0
   -1.0989    3.5743    3.0993 O   0  0  0  0  0  0
    0.0260    6.4986    1.0920 C   0  0  2  0  0  0
    3.9185    5.7013    0.3054 O   0  0  0  0  0  0
    3.0462    2.2935    1.9679 O   0  0  0  0  0  0
    1.3275    1.3168    3.3449 C   0  0  1  0  0  0
   -2.0547    6.1307    2.2909 O   0  0  0  0  0  0
   -0.6093    7.2216    0.0636 O   0  0  0  0  0  0
    3.6938    1.0604    1.6664 C   0  0  1  0  0  0
    1.9244   -0.0705    3.0359 C   0  0  2  0  0  0
    0.8440    1.2531    4.6730 O   0  0  0  0  0  0
    2.6528   -0.0746    1.6847 C   0  0  1  0  0  0
    4.4979    1.2009    0.3610 C   0  0  0  0  0  0
    0.9196   -1.0703    3.0343 O   0  0  0  0  0  0
    1.7405    0.0790    0.6105 O   0  0  0  0  0  0
    5.0612   -0.0506    0.0024 O   0  0  0  0  0  0
    6.8440   -0.1692    0.1363 P   0  0  0  0  0  0
    7.0341   -0.6957    1.5758 O   0  0  0  0  0  0
    0.8956    3.2758    1.5241 H   0  0  0  0  0  0
    2.2262    5.9120    2.3373 H   0  0  0  0  0  0
   -0.0571    5.2623    3.6544 H   0  0  0  0  0  0
    3.8421    4.1456    1.5873 H   0  0  0  0  0  0
    2.9216    3.9029    0.1125 H   0  0  0  0  0  0
    3.2040    2.2313    3.9999 H   0  0  0  0  0  0
   -1.3125    4.8281    0.8767 H   0  0  0  0  0  0
   -1.1239    2.9856    2.3600 H   0  0  0  0  0  0
    0.3540    7.2253    1.8381 H   0  0  0  0  0  0
    4.4796    5.3510   -0.3695 H   0  0  0  0  0  0
    0.5205    1.5657    2.6540 H   0  0  0  0  0  0
   -2.3540    6.8024    1.6964 H   0  0  0  0  0  0
   -0.2249    8.0846    0.0381 H   0  0  0  0  0  0
    4.4171    0.8848    2.4649 H   0  0  0  0  0  0
    2.6451   -0.3316    3.8131 H   0  0  0  0  0  0
    1.5651    0.9942    5.2273 H   0  0  0  0  0  0
    3.1610   -1.0301    1.5592 H   0  0  0  0  0  0
    3.9008    1.6375   -0.4401 H   0  0  0  0  0  0
    5.3337    1.8816    0.5226 H   0  0  0  0  0  0
    0.5877   -1.1604    3.9150 H   0  0  0  0  0  0
    1.4037    0.9613    0.6337 H   0  0  0  0  0  0
    7.1845   -1.1589   -1.0003 O   0  5  0  0  0  0
    7.2651    1.2977   -0.1005 O   0  5  0  0  0  0
  1  2  1  0  0  0
  1  3  1  0  0  0
  1  4  1  0  0  0
  1 26  1  0  0  0
  2  5  1  0  0  0
  2  6  1  0  0  0
  2 27  1  0  0  0
  3  7  1  0  0  0
  4  8  1  0  0  0
  4  9  1  0  0  0
  4 28  1  0  0  0
  5 10  1  0  0  0
  6 11  1  0  0  0
  6 29  1  0  0  0
  6 30  1  0  0  0
  7 12  1  0  0  0
  7 13  1  0  0  0
  7 31  1  0  0  0
  8 14  1  0  0  0
  8 10  1  0  0  0
  8 32  1  0  0  0
  9 33  1  0  0  0
 10 15  1  0  0  0
 10 34  1  0  0  0
 11 35  1  0  0  0
 12 16  1  0  0  0
 13 17  1  0  0  0
 13 18  1  0  0  0
 13 36  1  0  0  0
 14 37  1  0  0  0
 15 38  1  0  0  0
 16 19  1  0  0  0
 16 20  1  0  0  0
 16 39  1  0  0  0
 17 21  1  0  0  0
 17 19  1  0  0  0
 17 40  1  0  0  0
 18 41  1  0  0  0
 19 22  1  0  0  0
 19 42  1  0  0  0
 20 23  1  0  0  0
 20 43  1  0  0  0
 20 44  1  0  0  0
 21 45  1  0  0  0
 22 46  1  0  0  0
 23 24  1  0  0  0
 24 25  2  0  0  0
 24 47  1  0  0  0
 24 48  1  0  0  0
M  CHG  2  47  -1  48  -1
M  END
> <i_ionizer_Ion_state_n>
3

> <i_ionizer_Tot_Q>
-2

> <s_ionizer_Ion_centers>
47_48

> <s_ionizer_Ion_types>
OM_OM

> <s_ionizer_Ion_ctrs_in>
25_26

> <r_ionizer_Ionization_penalty>
1.49178e-05

> <r_ionizer_Ionization_penalty_charging>
1.49178e-05

> <r_ionizer_Ionization_penalty_neutral>
0

> <s_st_Chirality_1>
1_R_3_4_2_26

> <s_st_Chirality_2>
2_R_5_1_6_27

> <s_st_Chirality_3>
4_S_9_8_1_28

> <s_st_Chirality_4>
7_S_3_12_13_31

> <s_st_Chirality_5>
8_R_14_10_4_32

> <s_st_Chirality_6>
13_R_18_7_17_36

> <s_st_Chirality_7>
16_R_12_19_20_39

> <s_st_Chirality_8>
17_S_21_13_19_40

> <s_st_Chirality_9>
19_S_22_17_16_42

> <s_st_Chirality_10>
10_R_5_15_8_34

> <i_mmod_Serial_Number-OPLS-2005>
682

> <i_i_glide_lignum>
675

> <r_i_docking_score>
-5.28925

> <r_i_glide_gscore>
-5.28925

> <r_i_glide_lipo>
-0.901602

> <r_i_glide_hbond>
-1.18344

> <r_i_glide_metal>
0

> <r_i_glide_eburp>
-0.604041

> <r_i_glide_evdw>
-17.4024

> <r_i_glide_ecoul>
-13.4523

> <r_i_glide_erotb>
0.640291

> <r_i_glide_esite>
-0.503035

> <r_i_glide_emodel>
-53.8196

> <r_i_glide_energy>
-30.8547

> <r_i_glide_einternal>
15.1124

> <i_i_glide_confnum>
48

> <i_i_glide_posenum>
961

$$$$
C00785
                    3D
 Structure written by MMmdl.
 15 15  0  0  1  0            999 V2000
    2.2300    1.3436    3.7280 C   0  0  0  0  0  0
    1.0307    2.1598    3.5085 C   0  0  0  0  0  0
    2.2443    0.0917    4.2993 C   0  0  0  0  0  0
    3.5194    1.7502    3.3761 N   0  0  0  0  0  0
    1.0190    3.3681    2.9206 C   0  0  0  0  0  0
    3.5787   -0.2801    4.2979 N   0  0  0  0  0  0
    4.2745    0.7230    3.7493 C   0  0  0  0  0  0
   -0.2573    4.2115    2.6993 C   0  0  0  0  0  0
   -0.0939    5.3077    2.1213 O   0  0  0  0  0  0
    0.0969    1.7392    3.8531 H   0  0  0  0  0  0
    1.4556   -0.5356    4.6878 H   0  0  0  0  0  0
    1.9476    3.7958    2.5733 H   0  0  0  0  0  0
    3.9588   -1.1483    4.6465 H   0  0  0  0  0  0
    5.3468    0.7004    3.6218 H   0  0  0  0  0  0
   -1.3255    3.7005    3.0996 O   0  5  0  0  0  0
  1  2  1  0  0  0
  1  3  2  0  0  0
  1  4  1  0  0  0
  2  5  2  0  0  0
  2 10  1  0  0  0
  3  6  1  0  0  0
  3 11  1  0  0  0
  4  7  2  0  0  0
  5  8  1  0  0  0
  5 12  1  0  0  0
  6  7  1  0  0  0
  6 13  1  0  0  0
  7 14  1  0  0  0
  8  9  2  0  0  0
  8 15  1  0  0  0
M  CHG  1  15  -1
M  END
> <i_ionizer_Ion_state_n>
2

> <i_ionizer_Tot_Q>
-1

> <s_ionizer_Ion_centers>
15

> <s_ionizer_Ion_types>
OM

> <s_ionizer_Ion_ctrs_in>
9

> <r_ionizer_Ionization_penalty>
0.411272

> <r_ionizer_Ionization_penalty_charging>
0.00059219

> <r_ionizer_Ionization_penalty_neutral>
0.41068

> <s_st_EZ_1>
1_2_5_8_E

> <i_mmod_Serial_Number-OPLS-2005>
333

> <i_i_glide_lignum>
330

> <r_i_docking_score>
-5.28524

> <r_i_glide_gscore>
-5.28524

> <r_i_glide_lipo>
-0.332376

> <r_i_glide_hbond>
-1.42903

> <r_i_glide_metal>
0

> <r_i_glide_eburp>
-2.5

> <r_i_glide_evdw>
-13.5047

> <r_i_glide_ecoul>
-7.10963

> <r_i_glide_erotb>
0.861181

> <r_i_glide_esite>
-0.093674

> <r_i_glide_emodel>
-44.2878

> <r_i_glide_energy>
-20.6144

> <r_i_glide_einternal>
0.00616604

> <i_i_glide_confnum>
1

> <i_i_glide_posenum>
215

$$$$
C00235
                    3D
 Structure written by MMmdl.
 23 22  0  0  1  0            999 V2000
    1.0609    0.5666    2.5998 P   0  0  0  0  0  0
    0.5175    2.1306    2.2043 O   0  0  0  0  0  0
    2.5872    0.4751    1.8560 O   0  0  0  0  0  0
    1.2690    0.5073    4.0652 O   0  0  0  0  0  0
    0.0188    3.7293    2.8316 P   0  0  0  0  0  0
    3.2988   -0.7438    1.8048 C   0  0  0  0  0  0
   -1.5131    3.7045    2.6244 O   0  0  0  0  0  0
    4.7849   -0.4829    1.6508 C   0  0  0  0  0  0
    5.6114   -0.9174    0.6770 C   0  0  0  0  0  0
    7.0796   -0.5373    0.6727 C   0  0  0  0  0  0
    5.1997   -1.7986   -0.4912 C   0  0  0  0  0  0
    3.0570   -1.3309    2.6872 H   0  0  0  0  0  0
    2.9642   -1.3289    0.9480 H   0  0  0  0  0  0
    5.1969    0.1333    2.4372 H   0  0  0  0  0  0
    7.7019   -1.4310    0.7237 H   0  0  0  0  0  0
    7.3273    0.0022   -0.2416 H   0  0  0  0  0  0
    7.3334    0.0999    1.5206 H   0  0  0  0  0  0
    5.3004   -1.2477   -1.4264 H   0  0  0  0  0  0
    5.8512   -2.6712   -0.5429 H   0  0  0  0  0  0
    4.1784   -2.1656   -0.4257 H   0  0  0  0  0  0
    0.1749   -0.4299    1.9545 O   0  5  0  0  0  0
    0.4995    3.6799    4.2995 O   0  5  0  0  0  0
    0.7983    4.6917    1.9063 O   0  5  0  0  0  0
  1  2  1  0  0  0
  1  3  1  0  0  0
  1  4  2  0  0  0
  1 21  1  0  0  0
  2  5  1  0  0  0
  3  6  1  0  0  0
  5  7  2  0  0  0
  5 22  1  0  0  0
  5 23  1  0  0  0
  6  8  1  0  0  0
  6 12  1  0  0  0
  6 13  1  0  0  0
  8  9  2  0  0  0
  8 14  1  0  0  0
  9 10  1  0  0  0
  9 11  1  0  0  0
 10 15  1  0  0  0
 10 16  1  0  0  0
 10 17  1  0  0  0
 11 18  1  0  0  0
 11 19  1  0  0  0
 11 20  1  0  0  0
M  CHG  3  21  -1  22  -1  23  -1
M  END
> <i_ionizer_Ion_state_n>
7

> <i_ionizer_Tot_Q>
-3

> <s_ionizer_Ion_centers>
21_22_23

> <s_ionizer_Ion_types>
OM_OM_OM

> <s_ionizer_Ion_ctrs_in>
4_8_9

> <r_ionizer_Ionization_penalty>
2.23767e-05

> <r_ionizer_Ionization_penalty_charging>
2.23767e-05

> <r_ionizer_Ionization_penalty_neutral>
0

> <i_mmod_Serial_Number-OPLS-2005>
155

> <i_i_glide_lignum>
153

> <r_i_docking_score>
-5.28336

> <r_i_glide_gscore>
-5.28336

> <r_i_glide_lipo>
-0.52761

> <r_i_glide_hbond>
-1.54922

> <r_i_glide_metal>
0

> <r_i_glide_eburp>
-2.34643

> <r_i_glide_evdw>
-10.231

> <r_i_glide_ecoul>
-8.46457

> <r_i_glide_erotb>
1.34308

> <r_i_glide_esite>
-0.53824

> <r_i_glide_emodel>
-61.055

> <r_i_glide_energy>
-18.6956

> <r_i_glide_einternal>
1.14419

> <i_i_glide_confnum>
40

> <i_i_glide_posenum>
108

$$$$
C06650
                    3D
 Structure written by MMmdl.
 30 31  0  0  1  0            999 V2000
    2.3240    2.8033    1.9582 C   0  0  0  0  0  0
    2.7211    1.3480    2.2561 C   0  0  1  0  0  0
    1.0196    3.3168    2.1921 C   0  0  0  0  0  0
    3.3113    3.6758    1.4445 C   0  0  0  0  0  0
    3.7946    0.8130    1.2955 C   0  0  0  0  0  0
    2.8648    1.0173    3.7773 C   0  0  0  0  0  0
    0.7218    4.6665    1.9023 C   0  0  0  0  0  0
    0.0194    2.5390    2.7011 O   0  0  0  0  0  0
    3.0127    5.0199    1.1563 C   0  0  0  0  0  0
    4.8655    1.6035    0.8134 C   0  0  0  0  0  0
    3.6983   -0.5299    0.8650 C   0  0  0  0  0  0
    1.3616    1.2995    4.6998 Cl  0  0  0  0  0  0
    3.2976   -0.7045    3.9632 Cl  0  0  0  0  0  0
    4.1928    1.9726    4.4946 Cl  0  0  0  0  0  0
    1.7180    5.5182    1.3829 C   0  0  0  0  0  0
   -0.5382    5.1474    2.1289 O   0  0  0  0  0  0
    5.8160    1.0610   -0.0729 C   0  0  0  0  0  0
    4.6475   -1.0739   -0.0214 C   0  0  0  0  0  0
    1.3651    7.1711    1.0241 Cl  0  0  0  0  0  0
    5.7084   -0.2781   -0.4911 C   0  0  0  0  0  0
    6.8728   -0.9417   -1.5777 Cl  0  0  0  0  0  0
    1.8528    0.7568    1.9600 H   0  0  0  0  0  0
    4.3129    3.3150    1.2613 H   0  0  0  0  0  0
    0.3014    1.6421    2.8063 H   0  0  0  0  0  0
    3.7803    5.6686    0.7605 H   0  0  0  0  0  0
    4.9763    2.6332    1.1101 H   0  0  0  0  0  0
    2.8865   -1.1517    1.2136 H   0  0  0  0  0  0
   -0.6323    6.0521    1.8704 H   0  0  0  0  0  0
    6.6278    1.6760   -0.4325 H   0  0  0  0  0  0
    4.5592   -2.1019   -0.3410 H   0  0  0  0  0  0
  1  2  1  0  0  0
  1  3  1  0  0  0
  1  4  2  0  0  0
  2  5  1  0  0  0
  2  6  1  0  0  0
  2 22  1  0  0  0
  3  7  2  0  0  0
  3  8  1  0  0  0
  4  9  1  0  0  0
  4 23  1  0  0  0
  5 10  1  0  0  0
  5 11  2  0  0  0
  6 12  1  0  0  0
  6 13  1  0  0  0
  6 14  1  0  0  0
  7 15  1  0  0  0
  7 16  1  0  0  0
  8 24  1  0  0  0
  9 15  2  0  0  0
  9 25  1  0  0  0
 10 17  2  0  0  0
 10 26  1  0  0  0
 11 18  1  0  0  0
 11 27  1  0  0  0
 15 19  1  0  0  0
 16 28  1  0  0  0
 17 20  1  0  0  0
 17 29  1  0  0  0
 18 20  2  0  0  0
 18 30  1  0  0  0
 20 21  1  0  0  0
M  END
> <i_ionizer_Ion_state_n>
0

> <i_ionizer_Tot_Q>
0

> <s_ionizer_Ion_centers>


> <s_ionizer_Ion_types>


> <s_ionizer_Ion_ctrs_in>


> <r_ionizer_Ionization_penalty>
0.00118438

> <r_ionizer_Ionization_penalty_charging>
0

> <r_ionizer_Ionization_penalty_neutral>
0.00118438

> <s_st_Chirality_1>
2_R_6_1_5_22

> <i_mmod_Serial_Number-OPLS-2005>
882

> <i_i_glide_lignum>
870

> <r_i_docking_score>
-5.27993

> <r_i_glide_gscore>
-5.27993

> <r_i_glide_lipo>
-1.83133

> <r_i_glide_hbond>
0

> <r_i_glide_metal>
0

> <r_i_glide_eburp>
-0.859912

> <r_i_glide_evdw>
-26.1735

> <r_i_glide_ecoul>
-0.472122

> <r_i_glide_erotb>
0.297833

> <r_i_glide_esite>
-0.74543

> <r_i_glide_emodel>
-34.9631

> <r_i_glide_energy>
-26.6457

> <r_i_glide_einternal>
9.2664

> <i_i_glide_confnum>
1

> <i_i_glide_posenum>
282

$$$$
C00109
                    3D
 Structure written by MMmdl.
 12 11  0  0  1  0            999 V2000
    1.0158    1.4177    3.1550 C   0  0  0  0  0  0
    0.7132    2.9294    3.2665 C   0  0  0  0  0  0
    2.0037    0.8273    4.1734 C   0  0  0  0  0  0
    0.4915    0.7120    2.2906 O   0  0  0  0  0  0
    0.0956    3.2982    4.2909 O   0  0  0  0  0  0
    1.9514   -0.7063    4.2665 C   0  0  0  0  0  0
    3.0128    1.1395    3.9020 H   0  0  0  0  0  0
    1.7933    1.2571    5.1533 H   0  0  0  0  0  0
    2.6694   -1.0719    5.0006 H   0  0  0  0  0  0
    0.9632   -1.0528    4.5712 H   0  0  0  0  0  0
    2.1925   -1.1714    3.3099 H   0  0  0  0  0  0
    1.1159    3.6416    2.3195 O   0  5  0  0  0  0
  1  2  1  0  0  0
  1  3  1  0  0  0
  1  4  2  0  0  0
  2  5  2  0  0  0
  2 12  1  0  0  0
  3  6  1  0  0  0
  3  7  1  0  0  0
  3  8  1  0  0  0
  6  9  1  0  0  0
  6 10  1  0  0  0
  6 11  1  0  0  0
M  CHG  1  12  -1
M  END
> <i_ionizer_Ion_state_n>
1

> <i_ionizer_Tot_Q>
-1

> <s_ionizer_Ion_centers>
12

> <s_ionizer_Ion_types>
OM

> <s_ionizer_Ion_ctrs_in>
5

> <r_ionizer_Ionization_penalty>
0.00059219

> <r_ionizer_Ionization_penalty_charging>
0.00059219

> <r_ionizer_Ionization_penalty_neutral>
0

> <i_mmod_Serial_Number-OPLS-2005>
78

> <i_i_glide_lignum>
77

> <r_i_docking_score>
-5.27774

> <r_i_glide_gscore>
-5.27774

> <r_i_glide_lipo>
-0.194508

> <r_i_glide_hbond>
-0.7

> <r_i_glide_metal>
0

> <r_i_glide_eburp>
-2.5

> <r_i_glide_evdw>
-11.7631

> <r_i_glide_ecoul>
-4.64168

> <r_i_glide_erotb>
0

> <r_i_glide_esite>
-0.478013

> <r_i_glide_emodel>
-32.2774

> <r_i_glide_energy>
-16.4048

> <r_i_glide_einternal>
2.68257

> <i_i_glide_confnum>
1

> <i_i_glide_posenum>
679

$$$$
C02305
                    3D
 Structure written by MMmdl.
 21 20  0  0  1  0            999 V2000
    3.4104    0.3264    1.1523 C   0  0  0  0  0  0
    4.6823    0.0701    1.5583 N   0  0  0  0  0  0
    2.5349    0.8902    2.0167 N   0  0  0  0  0  0
    5.7207   -0.4194    0.6251 C   0  0  0  0  0  0
    5.0830    0.2619    2.9674 C   0  0  0  0  0  0
    1.2343   -0.0427    2.8253 P   0  0  0  0  0  0
    6.4751    0.6910   -0.1004 C   0  0  0  0  0  0
    1.6993   -1.4944    3.0833 O   0  0  0  0  0  0
    7.7047    0.5273   -0.2582 O   0  0  0  0  0  0
    2.5998    1.8580    2.2907 H   0  0  0  0  0  0
    2.0881    0.3079   -0.3879 H   0  0  0  0  0  0
    6.4482   -1.0404    1.1486 H   0  0  0  0  0  0
    5.2573   -1.0824   -0.1063 H   0  0  0  0  0  0
    6.1498    0.1001    3.1226 H   0  0  0  0  0  0
    4.8609    1.2803    3.2870 H   0  0  0  0  0  0
    4.5408   -0.4301    3.6120 H   0  0  0  0  0  0
    3.0234    0.0230   -0.0995 N   0  3  0  0  0  0
    3.6980   -0.2965   -0.7835 H   0  0  0  0  0  0
    0.9008    0.6427    4.1676 O   0  5  0  0  0  0
   -0.0087   -0.0425    1.9099 O   0  5  0  0  0  0
    5.8082    1.6740   -0.4897 O   0  5  0  0  0  0
  1  2  1  0  0  0
  1  3  1  0  0  0
  1 17  2  0  0  0
  2  4  1  0  0  0
  2  5  1  0  0  0
  3  6  1  0  0  0
  3 10  1  0  0  0
  4  7  1  0  0  0
  4 12  1  0  0  0
  4 13  1  0  0  0
  5 14  1  0  0  0
  5 15  1  0  0  0
  5 16  1  0  0  0
  6  8  2  0  0  0
  6 19  1  0  0  0
  6 20  1  0  0  0
  7  9  2  0  0  0
  7 21  1  0  0  0
 11 17  1  0  0  0
 17 18  1  0  0  0
M  CHG  4  17   1  19  -1  20  -1  21  -1
M  END
> <i_ionizer_Ion_state_n>
15

> <i_ionizer_Tot_Q>
-2

> <s_ionizer_Ion_centers>
17_19_20_21

> <s_ionizer_Ion_types>
N4_OM_OM_OM

> <s_ionizer_Ion_ctrs_in>
4_9_10_12

> <r_ionizer_Ionization_penalty>
0.000641237

> <r_ionizer_Ionization_penalty_charging>
0.000641237

> <r_ionizer_Ionization_penalty_neutral>
0

> <i_mmod_Serial_Number-OPLS-2005>
484

> <i_i_glide_lignum>
479

> <r_i_docking_score>
-5.27651

> <r_i_glide_gscore>
-5.27651

> <r_i_glide_lipo>
-0.259209

> <r_i_glide_hbond>
-0.988657

> <r_i_glide_metal>
0

> <r_i_glide_eburp>
-2.20379

> <r_i_glide_evdw>
-13.2041

> <r_i_glide_ecoul>
-14.8341

> <r_i_glide_erotb>
1.29966

> <r_i_glide_esite>
-0.58477

> <r_i_glide_emodel>
-65.2761

> <r_i_glide_energy>
-28.0382

> <r_i_glide_einternal>
4.18465

> <i_i_glide_confnum>
2

> <i_i_glide_posenum>
943

$$$$
C09812
                    3D
 Structure written by MMmdl.
 99102  0  0  1  0            999 V2000
   -0.1667    8.9581   14.7537 N   0  0  0  0  0  0
   -1.4101    8.3495   14.1837 C   0  0  1  0  0  0
    0.9519    8.2587   15.1485 C   0  0  0  0  0  0
    0.1392   10.2826   14.9956 C   0  0  0  0  0  0
   -2.6317    9.2018   14.5584 C   0  0  1  0  0  0
   -1.3086    8.3675   12.7856 O   0  0  0  0  0  0
    1.8611    9.2291   15.6493 C   0  0  0  0  0  0
    1.1655    6.9112   15.1017 N   0  0  0  0  0  0
    1.3153   10.4984   15.5231 N   0  0  0  0  0  0
   -3.4139    9.2063   13.2595 C   0  0  1  0  0  0
   -3.4491    8.6488   15.5679 O   0  0  0  0  0  0
   -2.2908    9.2358   12.2144 C   0  0  1  0  0  0
    3.0850    8.7232   16.1536 C   0  0  0  0  0  0
    2.3573    6.5847   15.6089 C   0  0  0  0  0  0
   -4.1296    7.9728   13.1873 O   0  0  0  0  0  0
   -1.6608   10.6230   11.9920 C   0  0  0  0  0  0
    3.2986    7.3872   16.1175 N   0  0  0  0  0  0
    4.0417    9.5065   16.6684 N   0  0  0  0  0  0
   -5.8939    8.0036   13.5162 P   0  0  0  0  0  0
   -2.4991   11.4583   11.2202 O   0  0  0  0  0  0
   -6.2725    6.5067   13.5496 O   0  0  0  0  0  0
   -3.5064   10.8179   10.0049 P   0  0  0  0  0  0
   -4.0373   12.1567    9.0929 O   0  0  0  0  0  0
   -2.6832    9.9526    9.1288 O   0  0  0  0  0  0
   -3.5111   13.0281    7.7269 P   0  0  0  0  0  0
   -3.1453   11.8119    6.5886 O   0  0  0  0  0  0
   -4.6410   13.8228    7.1951 O   0  0  0  0  0  0
   -4.1279   10.9116    6.1067 C   0  0  0  0  0  0
   -3.5048    9.6058    5.5440 C   0  0  0  0  0  0
   -2.8692    9.9207    4.1470 C   0  0  2  0  0  0
   -2.4627    9.0725    6.5524 C   0  0  0  0  0  0
   -4.6171    8.5428    5.3900 C   0  0  0  0  0  0
   -2.2356    8.7171    3.4237 C   0  0  0  0  0  0
   -1.8967   10.9455    4.2542 O   0  0  0  0  0  0
   -1.9065    8.9033    2.1367 N   0  0  0  0  0  0
   -2.0252    7.6597    4.0191 O   0  0  0  0  0  0
   -1.2784    7.8955    1.2935 C   0  0  0  0  0  0
    0.1524    7.6023    1.7776 C   0  0  0  0  0  0
    0.9270    6.6701    0.8406 C   0  0  0  0  0  0
    2.2367    6.5291    1.0959 N   0  0  0  0  0  0
    0.3589    6.1003   -0.0914 O   0  0  0  0  0  0
    3.0668    5.4260    0.6252 C   0  0  0  0  0  0
    3.4280    4.4625    1.7652 C   0  0  0  0  0  0
    4.1285    2.9160    1.1150 S   0  0  0  0  0  0
    3.9591    1.7455    2.5058 C   0  0  0  0  0  0
    2.6291    0.9985    2.7489 C   0  0  1  0  0  0
    4.9110    1.5738    3.2662 O   0  0  0  0  0  0
    2.8365   -0.5277    2.9472 C   0  0  1  0  0  0
    1.9232    1.6062    3.9828 C   0  0  0  0  0  0
    1.5108   -1.2385    3.2820 C   0  0  0  0  0  0
    3.3423   -1.1128    1.7617 O   0  0  0  0  0  0
    0.6009    0.8908    4.2970 C   0  0  0  0  0  0
    0.8265   -0.6130    4.5057 C   0  0  0  0  0  0
   -1.4351    7.3261   14.5600 H   0  0  0  0  0  0
   -0.5390   11.0950   14.7790 H   0  0  0  0  0  0
   -2.3173   10.2104   14.8260 H   0  0  0  0  0  0
   -4.0964   10.0543   13.1925 H   0  0  0  0  0  0
   -2.8965    8.5638   16.3337 H   0  0  0  0  0  0
   -2.6144    8.8506   11.2491 H   0  0  0  0  0  0
    2.5888    5.5299   15.6127 H   0  0  0  0  0  0
   -1.4668   11.1172   12.9384 H   0  0  0  0  0  0
   -0.6969   10.5078   11.4960 H   0  0  0  0  0  0
    4.8939    9.0959   17.0198 H   0  0  0  0  0  0
    3.8916   10.5038   16.7224 H   0  0  0  0  0  0
   -4.8368   10.6835    6.9038 H   0  0  0  0  0  0
   -4.6959   11.4344    5.3368 H   0  0  0  0  0  0
   -3.6532   10.3192    3.5006 H   0  0  0  0  0  0
   -2.0335    8.1207    6.2417 H   0  0  0  0  0  0
   -1.6421    9.7748    6.6997 H   0  0  0  0  0  0
   -2.9227    8.9043    7.5249 H   0  0  0  0  0  0
   -4.2291    7.5881    5.0352 H   0  0  0  0  0  0
   -5.1080    8.3398    6.3422 H   0  0  0  0  0  0
   -5.3845    8.8698    4.6878 H   0  0  0  0  0  0
   -1.6719   11.2393    3.3851 H   0  0  0  0  0  0
   -2.1170    9.7958    1.7142 H   0  0  0  0  0  0
   -1.8798    6.9847    1.3144 H   0  0  0  0  0  0
   -1.2660    8.2520    0.2618 H   0  0  0  0  0  0
    0.7116    8.5338    1.8733 H   0  0  0  0  0  0
    0.1154    7.1533    2.7714 H   0  0  0  0  0  0
    2.6897    7.2345    1.6586 H   0  0  0  0  0  0
    2.5150    4.8934   -0.1499 H   0  0  0  0  0  0
    3.9706    5.8147    0.1526 H   0  0  0  0  0  0
    4.1490    4.9409    2.4268 H   0  0  0  0  0  0
    2.5326    4.2353    2.3443 H   0  0  0  0  0  0
    1.9742    1.0991    1.8882 H   0  0  0  0  0  0
    3.5486   -0.7116    3.7534 H   0  0  0  0  0  0
    2.5781    1.5409    4.8534 H   0  0  0  0  0  0
    1.7296    2.6685    3.8310 H   0  0  0  0  0  0
    0.8345   -1.1817    2.4274 H   0  0  0  0  0  0
    1.6886   -2.2990    3.4644 H   0  0  0  0  0  0
    2.8033   -0.8372    1.0359 H   0  0  0  0  0  0
    0.1460    1.3251    5.1878 H   0  0  0  0  0  0
   -0.1051    1.0485    3.4806 H   0  0  0  0  0  0
   -0.1258   -1.1096    4.6941 H   0  0  0  0  0  0
    1.4410   -0.7735    5.3925 H   0  0  0  0  0  0
   -5.9475    8.7511   14.8670 O   0  5  0  0  0  0
   -6.4109    8.7961   12.2953 O   0  5  0  0  0  0
   -4.6961   10.2386   10.6695 O   0  5  0  0  0  0
   -2.2497   13.7142    8.0909 O   0  5  0  0  0  0
  1  2  1  0  0  0
  1  3  1  0  0  0
  1  4  1  0  0  0
  2  5  1  0  0  0
  2  6  1  0  0  0
  2 54  1  0  0  0
  3  7  2  0  0  0
  3  8  1  0  0  0
  4  9  2  0  0  0
  4 55  1  0  0  0
  5 10  1  0  0  0
  5 11  1  0  0  0
  5 56  1  0  0  0
  6 12  1  0  0  0
  7 13  1  0  0  0
  7  9  1  0  0  0
  8 14  2  0  0  0
 10 15  1  0  0  0
 10 12  1  0  0  0
 10 57  1  0  0  0
 11 58  1  0  0  0
 12 16  1  0  0  0
 12 59  1  0  0  0
 13 17  2  0  0  0
 13 18  1  0  0  0
 14 17  1  0  0  0
 14 60  1  0  0  0
 15 19  1  0  0  0
 16 20  1  0  0  0
 16 61  1  0  0  0
 16 62  1  0  0  0
 18 63  1  0  0  0
 18 64  1  0  0  0
 19 21  2  0  0  0
 19 96  1  0  0  0
 19 97  1  0  0  0
 20 22  1  0  0  0
 22 23  1  0  0  0
 22 24  2  0  0  0
 22 98  1  0  0  0
 23 25  1  0  0  0
 25 26  1  0  0  0
 25 27  2  0  0  0
 25 99  1  0  0  0
 26 28  1  0  0  0
 28 29  1  0  0  0
 28 65  1  0  0  0
 28 66  1  0  0  0
 29 30  1  0  0  0
 29 31  1  0  0  0
 29 32  1  0  0  0
 30 33  1  0  0  0
 30 34  1  0  0  0
 30 67  1  0  0  0
 31 68  1  0  0  0
 31 69  1  0  0  0
 31 70  1  0  0  0
 32 71  1  0  0  0
 32 72  1  0  0  0
 32 73  1  0  0  0
 33 35  1  0  0  0
 33 36  2  0  0  0
 34 74  1  0  0  0
 35 37  1  0  0  0
 35 75  1  0  0  0
 37 38  1  0  0  0
 37 76  1  0  0  0
 37 77  1  0  0  0
 38 39  1  0  0  0
 38 78  1  0  0  0
 38 79  1  0  0  0
 39 40  1  0  0  0
 39 41  2  0  0  0
 40 42  1  0  0  0
 40 80  1  0  0  0
 42 43  1  0  0  0
 42 81  1  0  0  0
 42 82  1  0  0  0
 43 44  1  0  0  0
 43 83  1  0  0  0
 43 84  1  0  0  0
 44 45  1  0  0  0
 45 46  1  0  0  0
 45 47  2  0  0  0
 46 48  1  0  0  0
 46 49  1  0  0  0
 46 85  1  0  0  0
 48 50  1  0  0  0
 48 51  1  0  0  0
 48 86  1  0  0  0
 49 52  1  0  0  0
 49 87  1  0  0  0
 49 88  1  0  0  0
 50 53  1  0  0  0
 50 89  1  0  0  0
 50 90  1  0  0  0
 51 91  1  0  0  0
 52 53  1  0  0  0
 52 92  1  0  0  0
 52 93  1  0  0  0
 53 94  1  0  0  0
 53 95  1  0  0  0
M  CHG  4  96  -1  97  -1  98  -1  99  -1
M  END
> <i_ionizer_Ion_state_n>
30

> <i_ionizer_Tot_Q>
-4

> <s_ionizer_Ion_centers>
96_97_98_99

> <s_ionizer_Ion_types>
OM_OM_OM_OM

> <s_ionizer_Ion_ctrs_in>
21_22_26_30

> <r_ionizer_Ionization_penalty>
4.85714e-05

> <r_ionizer_Ionization_penalty_charging>
2.98356e-05

> <r_ionizer_Ionization_penalty_neutral>
1.87357e-05

> <s_st_Chirality_1>
2_R_6_1_5_54

> <s_st_Chirality_2>
5_R_11_2_10_56

> <s_st_Chirality_3>
10_R_15_5_12_57

> <s_st_Chirality_4>
12_R_6_10_16_59

> <s_st_Chirality_5>
30_R_34_33_29_67

> <s_st_Chirality_6>
46_R_45_48_49_85

> <s_st_Chirality_7>
48_R_51_46_50_86

> <i_mmod_Serial_Number-OPLS-2005>
914

> <i_i_glide_lignum>
902

> <r_i_docking_score>
-5.27214

> <r_i_glide_gscore>
-5.27214

> <r_i_glide_lipo>
-1.35393

> <r_i_glide_hbond>
-0.712724

> <r_i_glide_metal>
0

> <r_i_glide_eburp>
0

> <r_i_glide_evdw>
-47.2424

> <r_i_glide_ecoul>
-1.03905

> <r_i_glide_erotb>
0.451784

> <r_i_glide_esite>
0.226026

> <r_i_glide_emodel>
-65.8853

> <r_i_glide_energy>
-48.2815

> <r_i_glide_einternal>
14.4987

> <i_i_glide_confnum>
899

> <i_i_glide_posenum>
874

$$$$
C05828
                    3D
 Structure written by MMmdl.
 18 18  0  0  1  0            999 V2000
    2.0046    1.5872    3.3265 C   0  0  0  0  0  0
    3.3344    1.9057    3.4537 C   0  0  0  0  0  0
    0.9021    2.2286    2.5444 C   0  0  0  0  0  0
    3.8901    0.9797    4.2974 N   0  0  0  0  0  0
    2.9583    0.1060    4.6922 C   0  0  0  0  0  0
    0.5134    3.5348    3.2381 C   0  0  0  0  0  0
    5.2793    0.8996    4.7435 C   0  0  0  0  0  0
   -0.6987    3.6999    3.5006 O   0  0  0  0  0  0
    3.9086    2.7096    3.0160 H   0  0  0  0  0  0
    1.2342    2.4218    1.5236 H   0  0  0  0  0  0
    0.0423    1.5597    2.4936 H   0  0  0  0  0  0
    3.0981   -0.7270    5.3580 H   0  0  0  0  0  0
    5.3138    0.9918    5.8296 H   0  0  0  0  0  0
    5.6995   -0.0601    4.4411 H   0  0  0  0  0  0
    5.8560    1.7074    4.2918 H   0  0  0  0  0  0
    1.8158    0.4712    4.1032 N   0  3  0  0  0  0
    0.9243    0.0076    4.2313 H   0  0  0  0  0  0
    1.4340    4.3398    3.4972 O   0  5  0  0  0  0
  1  2  2  0  0  0
  1  3  1  0  0  0
  1 16  1  0  0  0
  2  4  1  0  0  0
  2  9  1  0  0  0
  3  6  1  0  0  0
  3 10  1  0  0  0
  3 11  1  0  0  0
  4  7  1  0  0  0
  4  5  1  0  0  0
  5 12  1  0  0  0
  5 16  2  0  0  0
  6  8  2  0  0  0
  6 18  1  0  0  0
  7 13  1  0  0  0
  7 14  1  0  0  0
  7 15  1  0  0  0
 16 17  1  0  0  0
M  CHG  2  16   1  18  -1
M  END
> <i_ionizer_Ion_state_n>
3

> <i_ionizer_Tot_Q>
0

> <s_ionizer_Ion_centers>
16_18

> <s_ionizer_Ion_types>
N4_OM

> <s_ionizer_Ion_ctrs_in>
3_9

> <r_ionizer_Ionization_penalty>
0.411272

> <r_ionizer_Ionization_penalty_charging>
0.411272

> <r_ionizer_Ionization_penalty_neutral>
0

> <i_mmod_Serial_Number-OPLS-2005>
803

> <i_i_glide_lignum>
794

> <r_i_docking_score>
-5.26621

> <r_i_glide_gscore>
-5.26621

> <r_i_glide_lipo>
-0.368515

> <r_i_glide_hbond>
-1.01532

> <r_i_glide_metal>
0

> <r_i_glide_eburp>
-2.5

> <r_i_glide_evdw>
-15.3934

> <r_i_glide_ecoul>
-5.35965

> <r_i_glide_erotb>
0.831989

> <r_i_glide_esite>
-0.446923

> <r_i_glide_emodel>
-44.1179

> <r_i_glide_energy>
-20.7531

> <r_i_glide_einternal>
0.481708

> <i_i_glide_confnum>
2

> <i_i_glide_posenum>
721

$$$$
C05665
                    3D
 Structure written by MMmdl.
 13 12  0  0  1  0            999 V2000
    6.0117    0.5070    4.7690 C   0  0  0  0  0  0
    6.5175    0.5586    6.2188 C   0  0  0  0  0  0
    4.4963    0.6723    4.6858 C   0  0  0  0  0  0
    4.0034    1.6638    4.1531 O   0  0  0  0  0  0
    6.4780    1.2950    4.1762 H   0  0  0  0  0  0
    6.2814   -0.4433    4.3066 H   0  0  0  0  0  0
    7.3826    1.2185    6.2998 H   0  0  0  0  0  0
    5.7460    0.9558    6.8801 H   0  0  0  0  0  0
    3.9023   -0.1316    5.1214 H   0  0  0  0  0  0
    7.2304   -0.7149    7.6531 H   0  0  0  0  0  0
    6.1040   -1.3971    6.6623 H   0  0  0  0  0  0
    6.9028   -0.7798    6.6997 N   0  3  0  0  0  0
    7.6405   -1.1505    6.1175 H   0  0  0  0  0  0
  1  2  1  0  0  0
  1  3  1  0  0  0
  1  5  1  0  0  0
  1  6  1  0  0  0
  2  7  1  0  0  0
  2  8  1  0  0  0
  2 12  1  0  0  0
  3  4  2  0  0  0
  3  9  1  0  0  0
 10 12  1  0  0  0
 11 12  1  0  0  0
 12 13  1  0  0  0
M  CHG  1  12   1
M  END
> <i_ionizer_Ion_state_n>
1

> <i_ionizer_Tot_Q>
1

> <s_ionizer_Ion_centers>
12

> <s_ionizer_Ion_types>
N5

> <s_ionizer_Ion_ctrs_in>
4

> <r_ionizer_Ionization_penalty>
0.000187331

> <r_ionizer_Ionization_penalty_charging>
0.000187331

> <r_ionizer_Ionization_penalty_neutral>
0

> <i_mmod_Serial_Number-OPLS-2005>
780

> <i_i_glide_lignum>
771

> <r_i_docking_score>
-5.26507

> <r_i_glide_gscore>
-5.26507

> <r_i_glide_lipo>
-0.246727

> <r_i_glide_hbond>
-1

> <r_i_glide_metal>
0

> <r_i_glide_eburp>
-2.5

> <r_i_glide_evdw>
-7.69359

> <r_i_glide_ecoul>
-8.73522

> <r_i_glide_erotb>
0

> <r_i_glide_esite>
-0.0293325

> <r_i_glide_emodel>
-26.7801

> <r_i_glide_energy>
-16.4288

> <r_i_glide_einternal>
3.81435

> <i_i_glide_confnum>
1

> <i_i_glide_posenum>
102

$$$$
C01107
                    3D
 Structure written by MMmdl.
 24 23  0  0  1  0            999 V2000
    1.5384    0.9438    2.1812 C   0  0  0  0  0  0
    3.0399    1.0670    2.5771 C   0  0  2  0  0  0
    0.9462   -0.4697    2.2948 C   0  0  0  0  0  0
    3.5340    2.4943    2.2281 C   0  0  0  0  0  0
    3.8974   -0.0205    1.8938 C   0  0  0  0  0  0
    3.1801    0.8923    3.9769 O   0  0  0  0  0  0
    1.6961   -1.3710    2.7314 O   0  0  0  0  0  0
    2.7148    3.6580    2.8146 C   0  0  0  0  0  0
    1.3438    3.4356    2.5426 O   0  0  0  0  0  0
    0.2701    4.8023    2.9714 P   0  0  0  0  0  0
    0.4421    5.7421    1.7566 O   0  0  0  0  0  0
    0.9381    1.5996    2.8135 H   0  0  0  0  0  0
    1.3924    1.3008    1.1609 H   0  0  0  0  0  0
    4.5679    2.6046    2.5576 H   0  0  0  0  0  0
    3.5565    2.6084    1.1434 H   0  0  0  0  0  0
    4.9440    0.0345    2.1915 H   0  0  0  0  0  0
    3.5592   -1.0247    2.1486 H   0  0  0  0  0  0
    3.8569    0.0738    0.8083 H   0  0  0  0  0  0
    3.0287   -0.0175    4.1814 H   0  0  0  0  0  0
    2.8491    3.7311    3.8938 H   0  0  0  0  0  0
    3.0244    4.6075    2.3781 H   0  0  0  0  0  0
   -0.2307   -0.6353    1.9041 O   0  5  0  0  0  0
   -1.1008    4.1004    3.0961 O   0  5  0  0  0  0
    0.9016    5.2885    4.2945 O   0  5  0  0  0  0
  1  2  1  0  0  0
  1  3  1  0  0  0
  1 12  1  0  0  0
  1 13  1  0  0  0
  2  4  1  0  0  0
  2  5  1  0  0  0
  2  6  1  0  0  0
  3  7  2  0  0  0
  3 22  1  0  0  0
  4  8  1  0  0  0
  4 14  1  0  0  0
  4 15  1  0  0  0
  5 16  1  0  0  0
  5 17  1  0  0  0
  5 18  1  0  0  0
  6 19  1  0  0  0
  8  9  1  0  0  0
  8 20  1  0  0  0
  8 21  1  0  0  0
  9 10  1  0  0  0
 10 11  2  0  0  0
 10 23  1  0  0  0
 10 24  1  0  0  0
M  CHG  3  22  -1  23  -1  24  -1
M  END
> <i_ionizer_Ion_state_n>
7

> <i_ionizer_Tot_Q>
-3

> <s_ionizer_Ion_centers>
22_23_24

> <s_ionizer_Ion_types>
OM_OM_OM

> <s_ionizer_Ion_ctrs_in>
7_12_13

> <r_ionizer_Ionization_penalty>
0.000607108

> <r_ionizer_Ionization_penalty_charging>
0.000607108

> <r_ionizer_Ionization_penalty_neutral>
0

> <s_st_Chirality_1>
2_R_6_1_4_5

> <i_mmod_Serial_Number-OPLS-2005>
395

> <i_i_glide_lignum>
391

> <r_i_docking_score>
-5.25586

> <r_i_glide_gscore>
-5.25586

> <r_i_glide_lipo>
-0.401372

> <r_i_glide_hbond>
-1.86077

> <r_i_glide_metal>
0

> <r_i_glide_eburp>
-2.08245

> <r_i_glide_evdw>
-15.0645

> <r_i_glide_ecoul>
-7.45193

> <r_i_glide_erotb>
1.53029

> <r_i_glide_esite>
-0.491202

> <r_i_glide_emodel>
-58.2957

> <r_i_glide_energy>
-22.5164

> <r_i_glide_einternal>
6.72481

> <i_i_glide_confnum>
78

> <i_i_glide_posenum>
517

$$$$
C03440
                    3D
 Structure written by MMmdl.
 18 18  0  0  1  0            999 V2000
    2.6713   -0.7388    2.8002 C   0  0  2  0  0  0
    3.1185   -0.2946    1.3903 C   0  0  0  0  0  0
    1.3001   -0.1536    3.1901 C   0  0  0  0  0  0
    4.6347   -0.1066    1.4780 C   0  0  2  0  0  0
    4.8635    0.2266    2.9518 C   0  0  0  0  0  0
    0.3736   -0.3025    2.3640 O   0  0  0  0  0  0
    5.0510    0.9763    0.6703 O   0  0  0  0  0  0
    2.6154   -1.8274    2.8464 H   0  0  0  0  0  0
    2.8989   -1.0920    0.6793 H   0  0  0  0  0  0
    2.5953    0.5949    1.0342 H   0  0  0  0  0  0
    5.1765   -1.0013    1.1690 H   0  0  0  0  0  0
    5.0251    1.2940    3.1068 H   0  0  0  0  0  0
    5.7589   -0.3002    3.2839 H   0  0  0  0  0  0
    4.8714    0.7710   -0.2349 H   0  0  0  0  0  0
    3.7201   -0.2747    3.7336 N   0  3  0  0  0  0
    3.3018    0.4999    4.2337 H   0  0  0  0  0  0
    3.9858   -0.9985    4.3846 H   0  0  0  0  0  0
    1.1830    0.4150    4.3005 O   0  5  0  0  0  0
  1  2  1  0  0  0
  1  3  1  0  0  0
  1  8  1  0  0  0
  1 15  1  0  0  0
  2  4  1  0  0  0
  2  9  1  0  0  0
  2 10  1  0  0  0
  3  6  2  0  0  0
  3 18  1  0  0  0
  4  7  1  0  0  0
  4  5  1  0  0  0
  4 11  1  0  0  0
  5 12  1  0  0  0
  5 13  1  0  0  0
  5 15  1  0  0  0
  7 14  1  0  0  0
 15 16  1  0  0  0
 15 17  1  0  0  0
M  CHG  2  15   1  18  -1
M  END
> <i_ionizer_Ion_state_n>
3

> <i_ionizer_Tot_Q>
0

> <s_ionizer_Ion_centers>
15_18

> <s_ionizer_Ion_types>
N5_OM

> <s_ionizer_Ion_ctrs_in>
3_7

> <r_ionizer_Ionization_penalty>
0.000651435

> <r_ionizer_Ionization_penalty_charging>
0.000651435

> <r_ionizer_Ionization_penalty_neutral>
0

> <s_st_Chirality_1>
1_R_15_3_2_8

> <s_st_Chirality_2>
4_R_7_5_2_11

> <i_mmod_Serial_Number-OPLS-2005>
544

> <i_i_glide_lignum>
538

> <r_i_docking_score>
-5.23263

> <r_i_glide_gscore>
-5.23263

> <r_i_glide_lipo>
-0.409905

> <r_i_glide_hbond>
-0.5

> <r_i_glide_metal>
0

> <r_i_glide_eburp>
-2.5

> <r_i_glide_evdw>
-13.9058

> <r_i_glide_ecoul>
-4.96586

> <r_i_glide_erotb>
0

> <r_i_glide_esite>
-0.213673

> <r_i_glide_emodel>
-37.4244

> <r_i_glide_energy>
-18.8717

> <r_i_glide_einternal>
0.402977

> <i_i_glide_confnum>
2

> <i_i_glide_posenum>
208

$$$$
C06459
                    3D
 Structure written by MMmdl.
 23 22  0  0  1  0            999 V2000
    0.9018    2.0327    3.4544 P   0  0  0  0  0  0
    2.3057    2.8168    2.4832 C   0  0  0  0  0  0
    0.1042    3.2747    3.9091 O   0  0  0  0  0  0
    3.5147    1.8570    2.4255 C   0  0  0  0  0  0
    3.2498    0.5130    1.8288 N   0  3  0  0  0  0
    4.5580   -0.1338    1.5462 C   0  0  0  0  0  0
    2.4920   -0.3510    2.7720 C   0  0  0  0  0  0
    2.4991    0.6336    0.5512 C   0  0  0  0  0  0
    1.9490    3.0575    1.4832 H   0  0  0  0  0  0
    2.5763    3.7592    2.9565 H   0  0  0  0  0  0
    4.3164    2.3391    1.8637 H   0  0  0  0  0  0
    3.9019    1.7223    3.4368 H   0  0  0  0  0  0
    4.4272   -1.1239    1.1068 H   0  0  0  0  0  0
    5.1499    0.4599    0.8478 H   0  0  0  0  0  0
    5.1448   -0.2542    2.4583 H   0  0  0  0  0  0
    2.4020   -1.3674    2.3858 H   0  0  0  0  0  0
    2.9897   -0.4074    3.7412 H   0  0  0  0  0  0
    1.4786    0.0152    2.9363 H   0  0  0  0  0  0
    2.4095   -0.3348    0.0568 H   0  0  0  0  0  0
    1.4857    1.0036    0.7069 H   0  0  0  0  0  0
    3.0021    1.3128   -0.1387 H   0  0  0  0  0  0
    0.2302    1.1523    2.3778 O   0  5  0  0  0  0
    1.6745    1.2812    4.5596 O   0  5  0  0  0  0
  1  2  1  0  0  0
  1  3  2  0  0  0
  1 22  1  0  0  0
  1 23  1  0  0  0
  2  4  1  0  0  0
  2  9  1  0  0  0
  2 10  1  0  0  0
  4  5  1  0  0  0
  4 11  1  0  0  0
  4 12  1  0  0  0
  5  6  1  0  0  0
  5  7  1  0  0  0
  5  8  1  0  0  0
  6 13  1  0  0  0
  6 14  1  0  0  0
  6 15  1  0  0  0
  7 16  1  0  0  0
  7 17  1  0  0  0
  7 18  1  0  0  0
  8 19  1  0  0  0
  8 20  1  0  0  0
  8 21  1  0  0  0
M  CHG  3   5   1  22  -1  23  -1
M  END
> <i_ionizer_Ion_state_n>
3

> <i_ionizer_Tot_Q>
-1

> <s_ionizer_Ion_centers>
22_23

> <s_ionizer_Ion_types>
OM_OM

> <s_ionizer_Ion_ctrs_in>
3_4

> <r_ionizer_Ionization_penalty>
3.74715e-05

> <r_ionizer_Ionization_penalty_charging>
3.74715e-05

> <r_ionizer_Ionization_penalty_neutral>
0

> <i_mmod_Serial_Number-OPLS-2005>
873

> <i_i_glide_lignum>
861

> <r_i_docking_score>
-5.23158

> <r_i_glide_gscore>
-5.23158

> <r_i_glide_lipo>
-0.348517

> <r_i_glide_hbond>
-0.7

> <r_i_glide_metal>
0

> <r_i_glide_eburp>
-2.5

> <r_i_glide_evdw>
-12.2467

> <r_i_glide_ecoul>
-5.62984

> <r_i_glide_erotb>
0.63326

> <r_i_glide_esite>
-0.773606

> <r_i_glide_emodel>
-43.589

> <r_i_glide_energy>
-17.8765

> <r_i_glide_einternal>
1.85188

> <i_i_glide_confnum>
3

> <i_i_glide_posenum>
986

$$$$
C00213
                    3D
 Structure written by MMmdl.
 13 12  0  0  1  0            999 V2000
    2.4752   -0.2394    4.6115 C   0  0  0  0  0  0
    1.5913   -0.3810    3.3709 C   0  0  0  0  0  0
    1.7009   -1.4326    2.7009 O   0  0  0  0  0  0
    4.8462    0.3804    4.2594 C   0  0  0  0  0  0
    2.0535   -0.8406    5.4181 H   0  0  0  0  0  0
    2.5034    0.7975    4.9513 H   0  0  0  0  0  0
    5.8282   -0.0313    4.0264 H   0  0  0  0  0  0
    4.5930    1.1155    3.4948 H   0  0  0  0  0  0
    4.9077    0.8872    5.2230 H   0  0  0  0  0  0
    3.8423   -0.6984    4.2994 N   0  3  0  0  0  0
    4.1001   -1.3744    5.0052 H   0  0  0  0  0  0
    3.8177   -1.1679    3.4057 H   0  0  0  0  0  0
    0.8172    0.5655    3.1130 O   0  5  0  0  0  0
  1  2  1  0  0  0
  1  5  1  0  0  0
  1  6  1  0  0  0
  1 10  1  0  0  0
  2  3  2  0  0  0
  2 13  1  0  0  0
  4  7  1  0  0  0
  4  8  1  0  0  0
  4  9  1  0  0  0
  4 10  1  0  0  0
 10 11  1  0  0  0
 10 12  1  0  0  0
M  CHG  2  10   1  13  -1
M  END
> <i_ionizer_Ion_state_n>
3

> <i_ionizer_Tot_Q>
0

> <s_ionizer_Ion_centers>
10_13

> <s_ionizer_Ion_types>
N5_OM

> <s_ionizer_Ion_ctrs_in>
3_4

> <r_ionizer_Ionization_penalty>
0.000651435

> <r_ionizer_Ionization_penalty_charging>
0.000651435

> <r_ionizer_Ionization_penalty_neutral>
0

> <i_mmod_Serial_Number-OPLS-2005>
142

> <i_i_glide_lignum>
140

> <r_i_docking_score>
-5.22844

> <r_i_glide_gscore>
-5.22844

> <r_i_glide_lipo>
-0.20318

> <r_i_glide_hbond>
-0.519373

> <r_i_glide_metal>
0

> <r_i_glide_eburp>
-2.5

> <r_i_glide_evdw>
-7.73659

> <r_i_glide_ecoul>
-12.3856

> <r_i_glide_erotb>
0

> <r_i_glide_esite>
-0.148392

> <r_i_glide_emodel>
-34.7802

> <r_i_glide_energy>
-20.1222

> <r_i_glide_einternal>
0.18811

> <i_i_glide_confnum>
1

> <i_i_glide_posenum>
852

$$$$
C01801
                    3D
 Structure written by MMmdl.
 19 19  0  0  1  0            999 V2000
    1.8940   -0.2711    2.3781 C   0  0  2  0  0  0
    1.7185    1.1337    2.9852 C   0  0  2  0  0  0
    2.3115   -1.1017    3.4668 O   0  0  0  0  0  0
    2.9441   -0.3159    1.2549 C   0  0  0  0  0  0
    1.6668    0.8607    4.4768 C   0  0  0  0  0  0
    0.5349    1.7697    2.5471 O   0  0  0  0  0  0
    2.6052   -0.3310    4.5873 C   0  0  2  0  0  0
    2.4398    0.2980    0.0871 O   0  0  0  0  0  0
    3.9487    0.1013    4.5945 O   0  0  0  0  0  0
    0.9329   -0.6444    2.0197 H   0  0  0  0  0  0
    2.5796    1.7644    2.7583 H   0  0  0  0  0  0
    3.8341    0.2391    1.5533 H   0  0  0  0  0  0
    3.2560   -1.3392    1.0436 H   0  0  0  0  0  0
    1.9861    1.6965    5.1007 H   0  0  0  0  0  0
    0.6699    0.5417    4.7859 H   0  0  0  0  0  0
    0.5952    1.9104    1.6145 H   0  0  0  0  0  0
    2.4427   -0.9143    5.4943 H   0  0  0  0  0  0
    3.0194    0.0992   -0.6322 H   0  0  0  0  0  0
    4.4803   -0.6013    4.9366 H   0  0  0  0  0  0
  1  2  1  0  0  0
  1  3  1  0  0  0
  1  4  1  0  0  0
  1 10  1  0  0  0
  2  5  1  0  0  0
  2  6  1  0  0  0
  2 11  1  0  0  0
  3  7  1  0  0  0
  4  8  1  0  0  0
  4 12  1  0  0  0
  4 13  1  0  0  0
  5  7  1  0  0  0
  5 14  1  0  0  0
  5 15  1  0  0  0
  6 16  1  0  0  0
  7  9  1  0  0  0
  7 17  1  0  0  0
  8 18  1  0  0  0
  9 19  1  0  0  0
M  END
> <i_ionizer_Ion_state_n>
0

> <i_ionizer_Tot_Q>
0

> <s_ionizer_Ion_centers>


> <s_ionizer_Ion_types>


> <s_ionizer_Ion_ctrs_in>


> <r_ionizer_Ionization_penalty>
0

> <r_ionizer_Ionization_penalty_charging>
0

> <r_ionizer_Ionization_penalty_neutral>
0

> <s_st_Chirality_1>
1_R_3_2_4_10

> <s_st_Chirality_2>
2_S_6_1_5_11

> <s_st_Chirality_3>
7_R_3_9_5_17

> <i_mmod_Serial_Number-OPLS-2005>
460

> <i_i_glide_lignum>
455

> <r_i_docking_score>
-5.22174

> <r_i_glide_gscore>
-5.22174

> <r_i_glide_lipo>
-0.379219

> <r_i_glide_hbond>
-0.755301

> <r_i_glide_metal>
0

> <r_i_glide_eburp>
-2.5

> <r_i_glide_evdw>
-14.0975

> <r_i_glide_ecoul>
-7.76934

> <r_i_glide_erotb>
0.891578

> <r_i_glide_esite>
-0.574065

> <r_i_glide_emodel>
-27.3238

> <r_i_glide_energy>
-21.8669

> <r_i_glide_einternal>
1.56959

> <i_i_glide_confnum>
1

> <i_i_glide_posenum>
525

$$$$
C05651
                    3D
 Structure written by MMmdl.
 28 28  0  0  1  0            999 V2000
    3.9525    0.9334    1.4146 C   0  0  0  0  0  0
    5.1695    0.6712    0.5822 C   0  0  0  0  0  0
    3.5865    2.2400    1.8511 C   0  0  0  0  0  0
    3.1619   -0.1655    1.8309 C   0  0  0  0  0  0
    5.9194   -0.6513    0.8301 C   0  0  0  0  0  0
    5.5899    1.4506   -0.2741 O   0  0  0  0  0  0
    2.4455    2.4184    2.6612 C   0  0  0  0  0  0
    4.2797    3.3395    1.5063 N   0  0  0  0  0  0
    2.0255    0.0229    2.6393 C   0  0  0  0  0  0
    7.0577   -0.9486   -0.1831 C   0  0  2  0  0  0
    1.6648    1.3167    3.0535 C   0  0  0  0  0  0
    1.2790   -1.0526    3.0229 O   0  0  0  0  0  0
    8.1962    0.0840   -0.1380 C   0  0  0  0  0  0
    9.3088   -0.2897    0.2962 O   0  0  0  0  0  0
    3.4219   -1.1738    1.5438 H   0  0  0  0  0  0
    6.3370   -0.6039    1.8363 H   0  0  0  0  0  0
    5.2072   -1.4780    0.8343 H   0  0  0  0  0  0
    2.1596    3.4080    2.9874 H   0  0  0  0  0  0
    4.0725    4.2378    1.9182 H   0  0  0  0  0  0
    5.1692    3.2539    1.0327 H   0  0  0  0  0  0
    7.4629   -1.9428    0.0157 H   0  0  0  0  0  0
    0.7942    1.4701    3.6740 H   0  0  0  0  0  0
    0.6581   -0.8503    3.7059 H   0  0  0  0  0  0
    7.2919   -1.1907   -2.1913 H   0  0  0  0  0  0
    5.8042   -1.6556   -1.6414 H   0  0  0  0  0  0
    6.5369   -0.9661   -1.5590 N   0  3  0  0  0  0
    6.1757   -0.0500   -1.7837 H   0  0  0  0  0  0
    7.9178    1.2476   -0.4994 O   0  5  0  0  0  0
  1  2  1  0  0  0
  1  3  1  0  0  0
  1  4  2  0  0  0
  2  5  1  0  0  0
  2  6  2  0  0  0
  3  7  2  0  0  0
  3  8  1  0  0  0
  4  9  1  0  0  0
  4 15  1  0  0  0
  5 10  1  0  0  0
  5 16  1  0  0  0
  5 17  1  0  0  0
  7 11  1  0  0  0
  7 18  1  0  0  0
  8 19  1  0  0  0
  8 20  1  0  0  0
  9 12  1  0  0  0
  9 11  2  0  0  0
 10 13  1  0  0  0
 10 21  1  0  0  0
 10 26  1  0  0  0
 11 22  1  0  0  0
 12 23  1  0  0  0
 13 14  2  0  0  0
 13 28  1  0  0  0
 24 26  1  0  0  0
 25 26  1  0  0  0
 26 27  1  0  0  0
M  CHG  2  26   1  28  -1
M  END
> <i_ionizer_Ion_state_n>
12

> <i_ionizer_Tot_Q>
0

> <s_ionizer_Ion_centers>
26_28

> <s_ionizer_Ion_types>
N5_OM

> <s_ionizer_Ion_ctrs_in>
14_15

> <r_ionizer_Ionization_penalty>
0.00324236

> <r_ionizer_Ionization_penalty_charging>
0.000779521

> <r_ionizer_Ionization_penalty_neutral>
0.00246284

> <s_st_Chirality_1>
10_R_26_13_5_21

> <i_mmod_Serial_Number-OPLS-2005>
773

> <i_i_glide_lignum>
764

> <r_i_docking_score>
-5.21421

> <r_i_glide_gscore>
-5.21421

> <r_i_glide_lipo>
-0.745313

> <r_i_glide_hbond>
-0.044803

> <r_i_glide_metal>
0

> <r_i_glide_eburp>
-2.08926

> <r_i_glide_evdw>
-25.284

> <r_i_glide_ecoul>
-5.32839

> <r_i_glide_erotb>
1.1555

> <r_i_glide_esite>
-0.934787

> <r_i_glide_emodel>
-51.4588

> <r_i_glide_energy>
-30.6124

> <r_i_glide_einternal>
4.42337

> <i_i_glide_confnum>
15

> <i_i_glide_posenum>
297

$$$$
C00705
                    3D
 Structure written by MMmdl.
 36 37  0  0  1  0            999 V2000
    1.0439    5.7005    1.4939 N   0  0  0  0  0  0
    2.0921    4.6300    1.2751 C   0  0  2  0  0  0
    0.1979    5.5990    2.6232 C   0  0  0  0  0  0
    0.8673    6.7469    0.5989 C   0  0  0  0  0  0
    1.5955    3.3914    1.6976 O   0  0  0  0  0  0
    3.3408    4.9315    2.1071 C   0  0  0  0  0  0
   -0.7598    6.5647    2.7828 N   0  0  0  0  0  0
    0.3052    4.6772    3.4315 O   0  0  0  0  0  0
   -0.0874    7.6868    0.7654 C   0  0  0  0  0  0
    2.3645    2.8926    2.7940 C   0  0  1  0  0  0
    3.0767    4.1234    3.3597 C   0  0  1  0  0  0
   -0.9287    7.5590    1.9330 C   0  0  0  0  0  0
    1.4595    2.1607    3.7941 C   0  0  0  0  0  0
    4.2813    3.7863    4.0156 O   0  0  0  0  0  0
   -1.8991    8.4518    2.1702 N   0  0  0  0  0  0
    0.5968    1.2750    3.1113 O   0  0  0  0  0  0
    1.2268    0.0099    2.1662 P   0  0  0  0  0  0
    2.6015    0.6724    1.4074 O   0  0  0  0  0  0
    1.6632   -1.0655    3.0863 O   0  0  0  0  0  0
    4.3764    0.5910    1.1909 P   0  0  0  0  0  0
    4.8999    0.8967    2.6118 O   0  0  0  0  0  0
    2.2752    4.6007    0.2000 H   0  0  0  0  0  0
    1.4960    6.8350   -0.2711 H   0  0  0  0  0  0
    4.2091    4.5475    1.5698 H   0  0  0  0  0  0
    3.4779    5.9987    2.2851 H   0  0  0  0  0  0
   -0.1879    8.4792    0.0370 H   0  0  0  0  0  0
    3.1038    2.2002    2.3876 H   0  0  0  0  0  0
    2.4262    4.6787    4.0333 H   0  0  0  0  0  0
    2.0480    1.5942    4.5125 H   0  0  0  0  0  0
    0.8673    2.8758    4.3654 H   0  0  0  0  0  0
    4.7927    3.2589    3.4177 H   0  0  0  0  0  0
   -2.0538    9.2142    1.5267 H   0  0  0  0  0  0
   -2.4811    8.3493    2.9885 H   0  0  0  0  0  0
    0.2291   -0.2998    1.1165 O   0  5  0  0  0  0
    4.5936   -0.8576    0.6988 O   0  5  0  0  0  0
    4.6227    1.6995    0.1423 O   0  5  0  0  0  0
  1  2  1  0  0  0
  1  3  1  0  0  0
  1  4  1  0  0  0
  2  5  1  0  0  0
  2  6  1  0  0  0
  2 22  1  0  0  0
  3  7  1  0  0  0
  3  8  2  0  0  0
  4  9  2  0  0  0
  4 23  1  0  0  0
  5 10  1  0  0  0
  6 11  1  0  0  0
  6 24  1  0  0  0
  6 25  1  0  0  0
  7 12  2  0  0  0
  9 12  1  0  0  0
  9 26  1  0  0  0
 10 13  1  0  0  0
 10 11  1  0  0  0
 10 27  1  0  0  0
 11 14  1  0  0  0
 11 28  1  0  0  0
 12 15  1  0  0  0
 13 16  1  0  0  0
 13 29  1  0  0  0
 13 30  1  0  0  0
 14 31  1  0  0  0
 15 32  1  0  0  0
 15 33  1  0  0  0
 16 17  1  0  0  0
 17 18  1  0  0  0
 17 19  2  0  0  0
 17 34  1  0  0  0
 18 20  1  0  0  0
 20 21  2  0  0  0
 20 35  1  0  0  0
 20 36  1  0  0  0
M  CHG  3  34  -1  35  -1  36  -1
M  END
> <i_ionizer_Ion_state_n>
7

> <i_ionizer_Tot_Q>
-3

> <s_ionizer_Ion_centers>
34_35_36

> <s_ionizer_Ion_types>
OM_OM_OM

> <s_ionizer_Ion_ctrs_in>
19_22_23

> <r_ionizer_Ionization_penalty>
2.23767e-05

> <r_ionizer_Ionization_penalty_charging>
2.23767e-05

> <r_ionizer_Ionization_penalty_neutral>
0

> <s_st_Chirality_1>
2_R_5_1_6_22

> <s_st_Chirality_2>
10_R_5_11_13_27

> <s_st_Chirality_3>
11_S_14_10_6_28

> <i_mmod_Serial_Number-OPLS-2005>
325

> <i_i_glide_lignum>
322

> <r_i_docking_score>
-5.20806

> <r_i_glide_gscore>
-5.20806

> <r_i_glide_lipo>
-0.630151

> <r_i_glide_hbond>
-0.50709

> <r_i_glide_metal>
0

> <r_i_glide_eburp>
-0.877593

> <r_i_glide_evdw>
-35.3114

> <r_i_glide_ecoul>
-8.11189

> <r_i_glide_erotb>
0.752717

> <r_i_glide_esite>
-0.309848

> <r_i_glide_emodel>
-84.0159

> <r_i_glide_energy>
-43.4233

> <r_i_glide_einternal>
6.58803

> <i_i_glide_confnum>
127

> <i_i_glide_posenum>
436

$$$$
C01061
                    3D
 Structure written by MMmdl.
 20 19  0  0  1  0            999 V2000
    4.2043    0.6395    1.8035 C   0  0  0  0  0  0
    3.4203   -0.0859    2.8988 C   0  0  0  0  0  0
    4.8227   -0.2037    0.6868 C   0  0  0  0  0  0
    4.3210    1.8647    1.8153 O   0  0  0  0  0  0
    1.9287    0.2085    2.7407 C   0  0  0  0  0  0
    5.9231    0.5937   -0.0111 C   0  0  0  0  0  0
    1.4515    1.5437    3.1405 C   0  0  0  0  0  0
    1.1917   -0.6746    2.3006 O   0  0  0  0  0  0
    7.0680    0.0913   -0.0293 O   0  0  0  0  0  0
    0.2411    2.0069    2.7811 C   0  0  0  0  0  0
   -0.2999    3.3988    3.1778 C   0  0  0  0  0  0
   -1.4219    3.6998    2.7165 O   0  0  0  0  0  0
    3.5946   -1.1601    2.8346 H   0  0  0  0  0  0
    3.7628    0.2446    3.8795 H   0  0  0  0  0  0
    5.2388   -1.1223    1.1009 H   0  0  0  0  0  0
    4.0542   -0.4842   -0.0338 H   0  0  0  0  0  0
    2.1083    2.1563    3.7415 H   0  0  0  0  0  0
   -0.4130    1.3921    2.1799 H   0  0  0  0  0  0
    5.6054    1.7002   -0.4999 O   0  5  0  0  0  0
    0.4507    4.0908    3.8988 O   0  5  0  0  0  0
  1  2  1  0  0  0
  1  3  1  0  0  0
  1  4  2  0  0  0
  2  5  1  0  0  0
  2 13  1  0  0  0
  2 14  1  0  0  0
  3  6  1  0  0  0
  3 15  1  0  0  0
  3 16  1  0  0  0
  5  7  1  0  0  0
  5  8  2  0  0  0
  6  9  2  0  0  0
  6 19  1  0  0  0
  7 10  2  0  0  0
  7 17  1  0  0  0
 10 11  1  0  0  0
 10 18  1  0  0  0
 11 12  2  0  0  0
 11 20  1  0  0  0
M  CHG  2  19  -1  20  -1
M  END
> <i_ionizer_Ion_state_n>
3

> <i_ionizer_Tot_Q>
-2

> <s_ionizer_Ion_centers>
19_20

> <s_ionizer_Ion_types>
OM_OM

> <s_ionizer_Ion_ctrs_in>
9_13

> <r_ionizer_Ionization_penalty>
0.00118438

> <r_ionizer_Ionization_penalty_charging>
0.00118438

> <r_ionizer_Ionization_penalty_neutral>
0

> <s_st_EZ_1>
5_7_10_11_E

> <i_mmod_Serial_Number-OPLS-2005>
384

> <i_i_glide_lignum>
380

> <r_i_docking_score>
-5.19353

> <r_i_glide_gscore>
-5.19353

> <r_i_glide_lipo>
-0.328978

> <r_i_glide_hbond>
-1.78885

> <r_i_glide_metal>
0

> <r_i_glide_eburp>
-2.68687

> <r_i_glide_evdw>
-17.523

> <r_i_glide_ecoul>
-9.15292

> <r_i_glide_erotb>
2.37006

> <r_i_glide_esite>
-0.441762

> <r_i_glide_emodel>
-64.0502

> <r_i_glide_energy>
-26.6759

> <r_i_glide_einternal>
2.74618

> <i_i_glide_confnum>
2

> <i_i_glide_posenum>
871

$$$$
C05527
                    3D
 Structure written by MMmdl.
 11 10  0  0  1  0            999 V2000
    1.8678    0.7365    3.5478 C   0  0  0  0  0  0
    2.1270    2.1117    2.9198 C   0  0  0  0  0  0
    1.1411   -0.2988    2.6615 C   0  0  0  0  0  0
    2.2212    0.4723    4.6991 O   0  0  0  0  0  0
    0.6012    3.1669    2.8612 S   0  0  0  0  0  0
    1.5826   -1.4696    2.6996 O   0  5  0  0  0  0
    0.0973    3.3002    4.2998 O   0  0  0  0  0  0
    0.9940    4.4791    2.1794 O   0  5  0  0  0  0
    2.8959    2.6293    3.4930 H   0  0  0  0  0  0
    2.5066    1.9784    1.9070 H   0  0  0  0  0  0
    0.1778    0.1322    1.9883 O   0  0  0  0  0  0
  1  2  1  0  0  0
  1  3  1  0  0  0
  1  4  2  0  0  0
  2  5  1  0  0  0
  2  9  1  0  0  0
  2 10  1  0  0  0
  3  6  1  0  0  0
  3 11  2  0  0  0
  5  7  2  0  0  0
  5  8  1  0  0  0
M  CHG  2   6  -1   8  -1
M  END
> <i_ionizer_Ion_state_n>
1

> <i_ionizer_Tot_Q>
-1

> <s_ionizer_Ion_centers>
11

> <s_ionizer_Ion_types>
OM

> <s_ionizer_Ion_ctrs_in>
6

> <r_ionizer_Ionization_penalty>
0.00059219

> <r_ionizer_Ionization_penalty_charging>
0.00059219

> <r_ionizer_Ionization_penalty_neutral>
0

> <i_mmod_Serial_Number-OPLS-2005>
738

> <i_i_glide_lignum>
729

> <r_i_docking_score>
-5.19269

> <r_i_glide_gscore>
-5.19269

> <r_i_glide_lipo>
-0.0543806

> <r_i_glide_hbond>
-1.06509

> <r_i_glide_metal>
0

> <r_i_glide_eburp>
-2.5

> <r_i_glide_evdw>
-12.9931

> <r_i_glide_ecoul>
-6.9045

> <r_i_glide_erotb>
0.745788

> <r_i_glide_esite>
-0.589113

> <r_i_glide_emodel>
-46.3566

> <r_i_glide_energy>
-19.8976

> <r_i_glide_einternal>
1.31646

> <i_i_glide_confnum>
2

> <i_i_glide_posenum>
244

$$$$
C05528
                    3D
 Structure written by MMmdl.
 12 11  0  0  1  0            999 V2000
    1.3614   -0.4808    2.5885 S   0  0  0  0  0  0
    1.6462    1.3402    2.5026 C   0  0  0  0  0  0
    0.0998   -0.6885    1.8604 O   0  0  0  0  0  0
    2.5464   -1.0673    1.9429 O   0  0  0  0  0  0
    0.8188    2.1497    3.5116 C   0  0  0  0  0  0
    0.3998    3.5650    3.0597 C   0  0  0  0  0  0
    0.5047    1.7033    4.6162 O   0  0  0  0  0  0
   -0.6946    3.9848    3.4998 O   0  0  0  0  0  0
    2.7051    1.5256    2.6755 H   0  0  0  0  0  0
    1.4079    1.6727    1.4936 H   0  0  0  0  0  0
    1.2731   -0.7367    4.0344 O   0  5  0  0  0  0
    1.1943    4.1586    2.2961 O   0  5  0  0  0  0
  1  2  1  0  0  0
  1  3  2  0  0  0
  1  4  2  0  0  0
  1 11  1  0  0  0
  2  5  1  0  0  0
  2  9  1  0  0  0
  2 10  1  0  0  0
  5  6  1  0  0  0
  5  7  2  0  0  0
  6  8  2  0  0  0
  6 12  1  0  0  0
M  CHG  2  11  -1  12  -1
M  END
> <i_ionizer_Ion_state_n>
3

> <i_ionizer_Tot_Q>
-2

> <s_ionizer_Ion_centers>
11_12

> <s_ionizer_Ion_types>
OM_OM

> <s_ionizer_Ion_ctrs_in>
3_9

> <r_ionizer_Ionization_penalty>
0.000592196

> <r_ionizer_Ionization_penalty_charging>
0.000592196

> <r_ionizer_Ionization_penalty_neutral>
0

> <i_mmod_Serial_Number-OPLS-2005>
739

> <i_i_glide_lignum>
730

> <r_i_docking_score>
-5.19104

> <r_i_glide_gscore>
-5.19104

> <r_i_glide_lipo>
-0.0647879

> <r_i_glide_hbond>
-1.41704

> <r_i_glide_metal>
0

> <r_i_glide_eburp>
-2.5

> <r_i_glide_evdw>
-11.8307

> <r_i_glide_ecoul>
-4.63944

> <r_i_glide_erotb>
0.633435

> <r_i_glide_esite>
-0.432238

> <r_i_glide_emodel>
-45.7361

> <r_i_glide_energy>
-16.4702

> <r_i_glide_einternal>
1.47421

> <i_i_glide_confnum>
1

> <i_i_glide_posenum>
545

$$$$
C05832
                    3D
 Structure written by MMmdl.
 29 30  0  0  1  0            999 V2000
    0.0482    6.3068    1.7701 C   0  0  0  0  0  0
   -0.0538    6.6981    0.4029 C   0  0  0  0  0  0
    1.2068    5.4624    1.9105 C   0  0  0  0  0  0
   -0.9429    6.7911    2.6568 C   0  0  0  0  0  0
    1.0143    6.1001   -0.2346 N   0  0  0  0  0  0
   -1.0889    7.5304   -0.0604 C   0  0  0  0  0  0
    1.7684    5.3640    0.6622 C   0  0  0  0  0  0
    1.7141    4.8139    3.1658 C   0  0  0  0  0  0
   -1.9848    7.6259    2.2036 C   0  0  0  0  0  0
   -2.0587    7.9962    0.8461 C   0  0  0  0  0  0
    0.8991    3.5599    3.4850 C   0  0  0  0  0  0
   -2.9237    8.0748    3.0857 O   0  0  0  0  0  0
    1.5634    2.3946    3.4602 N   0  0  0  0  0  0
   -0.2990    3.6585    3.7485 O   0  0  0  0  0  0
    1.0695    1.1156    3.9577 C   0  0  0  0  0  0
    0.9039    0.1359    2.7979 C   0  0  0  0  0  0
    0.1005    0.4576    1.8947 O   0  0  0  0  0  0
   -0.8987    6.5115    3.6994 H   0  0  0  0  0  0
    1.2379    6.1721   -1.2167 H   0  0  0  0  0  0
   -1.1394    7.8094   -1.1023 H   0  0  0  0  0  0
    2.6471    4.8254    0.3381 H   0  0  0  0  0  0
    2.7658    4.5418    3.0680 H   0  0  0  0  0  0
    1.6516    5.5083    4.0044 H   0  0  0  0  0  0
   -2.8561    8.6355    0.4964 H   0  0  0  0  0  0
   -3.4359    8.7949    2.7516 H   0  0  0  0  0  0
    2.5106    2.3954    3.1108 H   0  0  0  0  0  0
    1.7282    0.6847    4.7137 H   0  0  0  0  0  0
    0.1011    1.2717    4.4333 H   0  0  0  0  0  0
    1.5852   -0.9120    2.8289 O   0  5  0  0  0  0
  1  2  1  0  0  0
  1  3  1  0  0  0
  1  4  2  0  0  0
  2  5  1  0  0  0
  2  6  2  0  0  0
  3  7  2  0  0  0
  3  8  1  0  0  0
  4  9  1  0  0  0
  4 18  1  0  0  0
  5  7  1  0  0  0
  5 19  1  0  0  0
  6 10  1  0  0  0
  6 20  1  0  0  0
  7 21  1  0  0  0
  8 11  1  0  0  0
  8 22  1  0  0  0
  8 23  1  0  0  0
  9 12  1  0  0  0
  9 10  2  0  0  0
 10 24  1  0  0  0
 11 13  1  0  0  0
 11 14  2  0  0  0
 12 25  1  0  0  0
 13 15  1  0  0  0
 13 26  1  0  0  0
 15 16  1  0  0  0
 15 27  1  0  0  0
 15 28  1  0  0  0
 16 17  2  0  0  0
 16 29  1  0  0  0
M  CHG  1  29  -1
M  END
> <i_ionizer_Ion_state_n>
2

> <i_ionizer_Tot_Q>
-1

> <s_ionizer_Ion_centers>
29

> <s_ionizer_Ion_types>
OM

> <s_ionizer_Ion_ctrs_in>
17

> <r_ionizer_Ionization_penalty>
0.00118438

> <r_ionizer_Ionization_penalty_charging>
0.00059219

> <r_ionizer_Ionization_penalty_neutral>
0.00059219

> <i_mmod_Serial_Number-OPLS-2005>
806

> <i_i_glide_lignum>
797

> <r_i_docking_score>
-5.18847

> <r_i_glide_gscore>
-5.18847

> <r_i_glide_lipo>
-0.935816

> <r_i_glide_hbond>
-0.766775

> <r_i_glide_metal>
0

> <r_i_glide_eburp>
-1.91491

> <r_i_glide_evdw>
-26.9381

> <r_i_glide_ecoul>
-7.74467

> <r_i_glide_erotb>
1.30464

> <r_i_glide_esite>
0.0539014

> <r_i_glide_emodel>
-66.3542

> <r_i_glide_energy>
-34.6828

> <r_i_glide_einternal>
1.43591

> <i_i_glide_confnum>
10

> <i_i_glide_posenum>
6

$$$$
C00346
                    3D
 Structure written by MMmdl.
 15 14  0  0  1  0            999 V2000
    1.2080    1.2698    4.6991 O   0  0  0  0  0  0
    0.8268    2.3229    3.2976 P   0  0  0  0  0  0
    2.1136    0.2157    4.4360 C   0  0  0  0  0  0
    0.2264    1.3026    2.3061 O   0  0  0  0  0  0
    3.5228    0.7777    4.2045 C   0  0  0  0  0  0
    2.1079   -0.4961    5.2633 H   0  0  0  0  0  0
    1.7702   -0.3262    3.5547 H   0  0  0  0  0  0
    3.5091    1.4910    3.3803 H   0  0  0  0  0  0
    3.8885    1.3161    5.0771 H   0  0  0  0  0  0
    5.3928    0.0970    3.7466 H   0  0  0  0  0  0
    4.5112   -0.9361    4.6832 H   0  0  0  0  0  0
   -0.1692    3.3396    3.9003 O   0  5  0  0  0  0
    2.2236    2.8762    2.9430 O   0  5  0  0  0  0
    4.4768   -0.2991    3.8999 N   0  3  0  0  0  0
    4.1751   -0.7936    3.0731 H   0  0  0  0  0  0
  1  2  1  0  0  0
  1  3  1  0  0  0
  2  4  2  0  0  0
  2 12  1  0  0  0
  2 13  1  0  0  0
  3  5  1  0  0  0
  3  6  1  0  0  0
  3  7  1  0  0  0
  5  8  1  0  0  0
  5  9  1  0  0  0
  5 14  1  0  0  0
 10 14  1  0  0  0
 11 14  1  0  0  0
 14 15  1  0  0  0
M  CHG  3  12  -1  13  -1  14   1
M  END
> <i_ionizer_Ion_state_n>
7

> <i_ionizer_Tot_Q>
-1

> <s_ionizer_Ion_centers>
12_13_14

> <s_ionizer_Ion_types>
OM_OM_N5

> <s_ionizer_Ion_ctrs_in>
4_5_8

> <r_ionizer_Ionization_penalty>
0.000202249

> <r_ionizer_Ionization_penalty_charging>
0.000202249

> <r_ionizer_Ionization_penalty_neutral>
0

> <i_mmod_Serial_Number-OPLS-2005>
201

> <i_i_glide_lignum>
199

> <r_i_docking_score>
-5.17455

> <r_i_glide_gscore>
-5.17455

> <r_i_glide_lipo>
-0.207259

> <r_i_glide_hbond>
-1.2

> <r_i_glide_metal>
0

> <r_i_glide_eburp>
-2.5

> <r_i_glide_evdw>
-9.9545

> <r_i_glide_ecoul>
-11.121

> <r_i_glide_erotb>
0.832804

> <r_i_glide_esite>
-0.191635

> <r_i_glide_emodel>
-50.1845

> <r_i_glide_energy>
-21.0755

> <r_i_glide_einternal>
3.20584

> <i_i_glide_confnum>
2

> <i_i_glide_posenum>
341

$$$$
C00388
                    3D
 Structure written by MMmdl.
 18 18  0  0  1  0            999 V2000
    3.4236    0.1583    4.1313 C   0  0  0  0  0  0
    4.6311    0.8121    4.2495 C   0  0  0  0  0  0
    2.5363    1.1052    3.6492 N   0  0  0  0  0  0
    4.4931    2.1431    3.8475 N   0  0  0  0  0  0
    3.2154    2.2460    3.5015 C   0  0  0  0  0  0
    5.9460    0.2757    4.7252 C   0  0  0  0  0  0
    6.0037    0.1662    6.2553 C   0  0  0  0  0  0
    3.1329   -0.8609    4.3406 H   0  0  0  0  0  0
    1.5575    0.9624    3.4447 H   0  0  0  0  0  0
    2.7703    3.1605    3.1376 H   0  0  0  0  0  0
    6.1267   -0.7040    4.2810 H   0  0  0  0  0  0
    6.7531    0.9194    4.3726 H   0  0  0  0  0  0
    6.0792    1.1577    6.7035 H   0  0  0  0  0  0
    5.0894   -0.2901    6.6365 H   0  0  0  0  0  0
    7.1645   -0.6900    7.7049 H   0  0  0  0  0  0
    7.0847   -1.5714    6.3141 H   0  0  0  0  0  0
    7.1558   -0.6390    6.6961 N   0  3  0  0  0  0
    8.0116   -0.2084    6.3757 H   0  0  0  0  0  0
  1  2  2  0  0  0
  1  3  1  0  0  0
  1  8  1  0  0  0
  2  4  1  0  0  0
  2  6  1  0  0  0
  3  5  1  0  0  0
  3  9  1  0  0  0
  4  5  2  0  0  0
  5 10  1  0  0  0
  6  7  1  0  0  0
  6 11  1  0  0  0
  6 12  1  0  0  0
  7 13  1  0  0  0
  7 14  1  0  0  0
  7 17  1  0  0  0
 15 17  1  0  0  0
 16 17  1  0  0  0
 17 18  1  0  0  0
M  CHG  1  17   1
M  END
> <i_ionizer_Ion_state_n>
2

> <i_ionizer_Tot_Q>
1

> <s_ionizer_Ion_centers>
17

> <s_ionizer_Ion_types>
N5

> <s_ionizer_Ion_ctrs_in>
8

> <r_ionizer_Ionization_penalty>
0.410867

> <r_ionizer_Ionization_penalty_charging>
0.000187331

> <r_ionizer_Ionization_penalty_neutral>
0.41068

> <i_mmod_Serial_Number-OPLS-2005>
222

> <i_i_glide_lignum>
220

> <r_i_docking_score>
-5.16856

> <r_i_glide_gscore>
-5.16856

> <r_i_glide_lipo>
-0.469782

> <r_i_glide_hbond>
-0.516185

> <r_i_glide_metal>
0

> <r_i_glide_eburp>
-2.5

> <r_i_glide_evdw>
-12.8311

> <r_i_glide_ecoul>
-6.60281

> <r_i_glide_erotb>
0

> <r_i_glide_esite>
0.00417568

> <r_i_glide_emodel>
-33.2367

> <r_i_glide_energy>
-19.4339

> <r_i_glide_einternal>
1.61857

> <i_i_glide_confnum>
1

> <i_i_glide_posenum>
797

$$$$
C01005
                    3D
 Structure written by MMmdl.
 17 16  0  0  1  0            999 V2000
    0.4219    3.9186    3.1774 P   0  0  0  0  0  0
    0.7476    2.3068    3.8967 O   0  0  0  0  0  0
    1.2999    3.8686    1.9076 O   0  0  0  0  0  0
    2.0387    1.7830    3.6388 C   0  0  0  0  0  0
    2.2809    0.4726    4.4220 C   0  0  1  0  0  0
    1.3885   -0.6757    3.9256 C   0  0  0  0  0  0
    0.4999   -1.0999    4.7000 O   0  0  0  0  0  0
    2.1388    1.6293    2.5639 H   0  0  0  0  0  0
    2.7917    2.5285    3.8998 H   0  0  0  0  0  0
    2.0970    0.6364    5.4838 H   0  0  0  0  0  0
    3.8249   -0.7841    4.8435 H   0  0  0  0  0  0
    3.8831   -0.1343    3.3284 H   0  0  0  0  0  0
   -1.1037    3.8553    2.9482 O   0  5  0  0  0  0
    0.9003    4.8891    4.2819 O   0  5  0  0  0  0
    3.6843    0.0550    4.3002 N   0  3  0  0  0  0
    4.2842    0.7920    4.6411 H   0  0  0  0  0  0
    1.5667   -1.0752    2.7539 O   0  5  0  0  0  0
  1  2  1  0  0  0
  1  3  2  0  0  0
  1 13  1  0  0  0
  1 14  1  0  0  0
  2  4  1  0  0  0
  4  5  1  0  0  0
  4  8  1  0  0  0
  4  9  1  0  0  0
  5  6  1  0  0  0
  5 10  1  0  0  0
  5 15  1  0  0  0
  6  7  2  0  0  0
  6 17  1  0  0  0
 11 15  1  0  0  0
 12 15  1  0  0  0
 15 16  1  0  0  0
M  CHG  4  13  -1  14  -1  15   1  17  -1
M  END
> <i_ionizer_Ion_state_n>
15

> <i_ionizer_Tot_Q>
-2

> <s_ionizer_Ion_centers>
13_14_15_17

> <s_ionizer_Ion_types>
OM_OM_N5_OM

> <s_ionizer_Ion_ctrs_in>
3_4_9_10

> <r_ionizer_Ionization_penalty>
0.000794438

> <r_ionizer_Ionization_penalty_charging>
0.000794438

> <r_ionizer_Ionization_penalty_neutral>
0

> <s_st_Chirality_1>
5_S_15_6_4_10

> <i_mmod_Serial_Number-OPLS-2005>
370

> <i_i_glide_lignum>
366

> <r_i_docking_score>
-5.16845

> <r_i_glide_gscore>
-5.16845

> <r_i_glide_lipo>
-0.158612

> <r_i_glide_hbond>
-1.73594

> <r_i_glide_metal>
0

> <r_i_glide_eburp>
-2.40107

> <r_i_glide_evdw>
-12.4019

> <r_i_glide_ecoul>
-6.90236

> <r_i_glide_erotb>
1.08074

> <r_i_glide_esite>
-0.271181

> <r_i_glide_emodel>
-60.9573

> <r_i_glide_energy>
-19.3043

> <r_i_glide_einternal>
1.73858

> <i_i_glide_confnum>
1

> <i_i_glide_posenum>
689

$$$$
C00631
                    3D
 Structure written by MMmdl.
 15 14  0  0  1  0            999 V2000
   -0.0198    3.7080    2.7685 P   0  0  0  0  0  0
    0.0993    1.9769    2.3099 O   0  0  0  0  0  0
   -1.4404    4.1002    2.3022 O   0  0  0  0  0  0
    0.9105    1.1633    3.1489 C   0  0  1  0  0  0
    0.8989   -0.3006    2.6642 C   0  0  0  0  0  0
    2.3297    1.7909    3.2696 C   0  0  0  0  0  0
    0.0019   -0.6525    1.8657 O   0  0  0  0  0  0
    3.1312    1.2601    4.3102 O   0  0  0  0  0  0
    0.4546    1.1563    4.1400 H   0  0  0  0  0  0
    2.8847    1.6937    2.3374 H   0  0  0  0  0  0
    2.2272    2.8603    3.4547 H   0  0  0  0  0  0
    3.1375    0.3182    4.2041 H   0  0  0  0  0  0
    0.1843    3.6392    4.2983 O   0  5  0  0  0  0
    1.1427    4.3307    1.9638 O   0  5  0  0  0  0
    1.7841   -1.0621    3.1181 O   0  5  0  0  0  0
  1  2  1  0  0  0
  1  3  2  0  0  0
  1 13  1  0  0  0
  1 14  1  0  0  0
  2  4  1  0  0  0
  4  5  1  0  0  0
  4  6  1  0  0  0
  4  9  1  0  0  0
  5  7  2  0  0  0
  5 15  1  0  0  0
  6  8  1  0  0  0
  6 10  1  0  0  0
  6 11  1  0  0  0
  8 12  1  0  0  0
M  CHG  3  13  -1  14  -1  15  -1
M  END
> <i_ionizer_Ion_state_n>
7

> <i_ionizer_Tot_Q>
-3

> <s_ionizer_Ion_centers>
13_14_15

> <s_ionizer_Ion_types>
OM_OM_OM

> <s_ionizer_Ion_ctrs_in>
3_4_9

> <r_ionizer_Ionization_penalty>
0.000607108

> <r_ionizer_Ionization_penalty_charging>
0.000607108

> <r_ionizer_Ionization_penalty_neutral>
0

> <s_st_Chirality_1>
4_R_2_5_6_9

> <i_mmod_Serial_Number-OPLS-2005>
300

> <i_i_glide_lignum>
298

> <r_i_docking_score>
-5.16626

> <r_i_glide_gscore>
-5.16626

> <r_i_glide_lipo>
-0.154737

> <r_i_glide_hbond>
-1.73244

> <r_i_glide_metal>
0

> <r_i_glide_eburp>
-2.40125

> <r_i_glide_evdw>
-7.89702

> <r_i_glide_ecoul>
-11.2708

> <r_i_glide_erotb>
1.08097

> <r_i_glide_esite>
-0.199974

> <r_i_glide_emodel>
-53.8267

> <r_i_glide_energy>
-19.1678

> <r_i_glide_einternal>
2.29846

> <i_i_glide_confnum>
1

> <i_i_glide_posenum>
192

$$$$
C05946
                    3D
 Structure written by MMmdl.
 15 14  0  0  1  0            999 V2000
    2.6440    0.4872    3.5856 C   0  0  1  0  0  0
    1.6633   -0.6927    3.6512 C   0  0  0  0  0  0
    1.9679    1.8187    3.9903 C   0  0  0  0  0  0
    3.7455    0.2235    4.4366 O   0  0  0  0  0  0
    0.8987   -0.7802    4.6385 O   0  0  0  0  0  0
    0.7398    2.1892    3.1446 C   0  0  0  0  0  0
    0.1074    3.5733    3.4052 C   0  0  0  0  0  0
    0.2830    1.4138    2.3015 O   0  0  0  0  0  0
   -1.0989    3.6997    3.0968 O   0  0  0  0  0  0
    3.0099    0.5573    2.5606 H   0  0  0  0  0  0
    1.6448    1.7607    5.0304 H   0  0  0  0  0  0
    2.6886    2.6354    3.9343 H   0  0  0  0  0  0
    3.9257   -0.7037    4.4023 H   0  0  0  0  0  0
    1.6963   -1.5000    2.6962 O   0  5  0  0  0  0
    0.8645    4.4383    3.9002 O   0  5  0  0  0  0
  1  2  1  0  0  0
  1  3  1  0  0  0
  1  4  1  0  0  0
  1 10  1  0  0  0
  2  5  2  0  0  0
  2 14  1  0  0  0
  3  6  1  0  0  0
  3 11  1  0  0  0
  3 12  1  0  0  0
  4 13  1  0  0  0
  6  7  1  0  0  0
  6  8  2  0  0  0
  7  9  2  0  0  0
  7 15  1  0  0  0
M  CHG  2  14  -1  15  -1
M  END
> <i_ionizer_Ion_state_n>
3

> <i_ionizer_Tot_Q>
-2

> <s_ionizer_Ion_centers>
14_15

> <s_ionizer_Ion_types>
OM_OM

> <s_ionizer_Ion_ctrs_in>
5_10

> <r_ionizer_Ionization_penalty>
0.00118438

> <r_ionizer_Ionization_penalty_charging>
0.00118438

> <r_ionizer_Ionization_penalty_neutral>
0

> <s_st_Chirality_1>
1_R_4_2_3_10

> <i_mmod_Serial_Number-OPLS-2005>
833

> <i_i_glide_lignum>
821

> <r_i_docking_score>
-5.15316

> <r_i_glide_gscore>
-5.15316

> <r_i_glide_lipo>
-0.131408

> <r_i_glide_hbond>
-1.87973

> <r_i_glide_metal>
0

> <r_i_glide_eburp>
-2.5

> <r_i_glide_evdw>
-13.0862

> <r_i_glide_ecoul>
-6.50299

> <r_i_glide_erotb>
1.34501

> <r_i_glide_esite>
-0.289838

> <r_i_glide_emodel>
-50.8388

> <r_i_glide_energy>
-19.5892

> <r_i_glide_einternal>
1.77834

> <i_i_glide_confnum>
1

> <i_i_glide_posenum>
972

$$$$
C00429
                    3D
 Structure written by MMmdl.
 14 14  0  0  1  0            999 V2000
    4.1761    0.1000    4.3000 N   0  0  0  0  0  0
    3.3357   -0.0304    3.2544 C   0  0  0  0  0  0
    4.8369    1.2178    4.6772 C   0  0  0  0  0  0
    3.0876    1.1979    2.3724 C   0  0  0  0  0  0
    2.7924   -1.0993    2.9853 O   0  0  0  0  0  0
    4.5002    2.3620    4.0491 N   0  0  0  0  0  0
    5.6998    1.1929    5.5503 O   0  0  0  0  0  0
    3.3705    2.5038    3.1349 C   0  0  0  0  0  0
    4.3749   -0.7390    4.8243 H   0  0  0  0  0  0
    3.7517    1.1234    1.5106 H   0  0  0  0  0  0
    2.0669    1.1895    1.9887 H   0  0  0  0  0  0
    5.0010    3.2024    4.3000 H   0  0  0  0  0  0
    3.5743    3.3150    2.4356 H   0  0  0  0  0  0
    2.4936    2.7972    3.7135 H   0  0  0  0  0  0
  1  2  1  0  0  0
  1  3  1  0  0  0
  1  9  1  0  0  0
  2  4  1  0  0  0
  2  5  2  0  0  0
  3  6  1  0  0  0
  3  7  2  0  0  0
  4  8  1  0  0  0
  4 10  1  0  0  0
  4 11  1  0  0  0
  6  8  1  0  0  0
  6 12  1  0  0  0
  8 13  1  0  0  0
  8 14  1  0  0  0
M  END
> <i_ionizer_Ion_state_n>
0

> <i_ionizer_Tot_Q>
0

> <s_ionizer_Ion_centers>


> <s_ionizer_Ion_types>


> <s_ionizer_Ion_ctrs_in>


> <r_ionizer_Ionization_penalty>
0

> <r_ionizer_Ionization_penalty_charging>
0

> <r_ionizer_Ionization_penalty_neutral>
0

> <i_mmod_Serial_Number-OPLS-2005>
233

> <i_i_glide_lignum>
231

> <r_i_docking_score>
-5.14438

> <r_i_glide_gscore>
-5.14438

> <r_i_glide_lipo>
-0.157061

> <r_i_glide_hbond>
-0.45

> <r_i_glide_metal>
0

> <r_i_glide_eburp>
-2.5

> <r_i_glide_evdw>
-17.6209

> <r_i_glide_ecoul>
-4.95305

> <r_i_glide_erotb>
0

> <r_i_glide_esite>
-0.132347

> <r_i_glide_emodel>
-27.1861

> <r_i_glide_energy>
-22.5739

> <r_i_glide_einternal>
0

> <i_i_glide_confnum>
1

> <i_i_glide_posenum>
550

$$$$
C00606
                    3D
 Structure written by MMmdl.
 15 14  0  0  1  0            999 V2000
    1.7956    0.5477    3.9750 C   0  0  1  0  0  0
    2.2964    1.9304    3.4795 C   0  0  0  0  0  0
    1.1757   -0.3485    2.8784 C   0  0  0  0  0  0
    0.8825    3.0468    3.0088 S   0  0  0  0  0  0
    0.1665    0.0645    2.2645 O   0  5  0  0  0  0
    1.4505    4.3021    2.3427 O   0  0  0  0  0  0
    0.0999    3.2994    4.2982 O   0  5  0  0  0  0
    0.9944    0.7267    4.6926 H   0  0  0  0  0  0
    2.9262    2.4316    4.2150 H   0  0  0  0  0  0
    2.9187    1.7956    2.5947 H   0  0  0  0  0  0
    2.4974   -1.0718    5.0008 H   0  0  0  0  0  0
    3.6255   -0.3197    4.0569 H   0  0  0  0  0  0
    2.8567   -0.1774    4.6998 N   0  3  0  0  0  0
    3.1697    0.3646    5.4913 H   0  0  0  0  0  0
    1.6939   -1.4748    2.6998 O   0  0  0  0  0  0
  1  2  1  0  0  0
  1  3  1  0  0  0
  1  8  1  0  0  0
  1 13  1  0  0  0
  2  4  1  0  0  0
  2  9  1  0  0  0
  2 10  1  0  0  0
  3  5  1  0  0  0
  3 15  2  0  0  0
  4  6  2  0  0  0
  4  7  1  0  0  0
 11 13  1  0  0  0
 12 13  1  0  0  0
 13 14  1  0  0  0
M  CHG  3   5  -1   7  -1  13   1
M  END
> <i_ionizer_Ion_state_n>
3

> <i_ionizer_Tot_Q>
0

> <s_ionizer_Ion_centers>
13_15

> <s_ionizer_Ion_types>
N5_OM

> <s_ionizer_Ion_ctrs_in>
4_6

> <r_ionizer_Ionization_penalty>
0.000779521

> <r_ionizer_Ionization_penalty_charging>
0.000779521

> <r_ionizer_Ionization_penalty_neutral>
0

> <s_st_Chirality_1>
1_R_13_2_3_8

> <i_mmod_Serial_Number-OPLS-2005>
293

> <i_i_glide_lignum>
291

> <r_i_docking_score>
-5.14109

> <r_i_glide_gscore>
-5.14109

> <r_i_glide_lipo>
-0.135311

> <r_i_glide_hbond>
-1.03309

> <r_i_glide_metal>
0

> <r_i_glide_eburp>
-2.5

> <r_i_glide_evdw>
-10.5926

> <r_i_glide_ecoul>
-7.81767

> <r_i_glide_erotb>
0.729842

> <r_i_glide_esite>
-0.573355

> <r_i_glide_emodel>
-49.3624

> <r_i_glide_energy>
-18.4102

> <r_i_glide_einternal>
1.19666

> <i_i_glide_confnum>
3

> <i_i_glide_posenum>
257

$$$$
C00763
                    3D
 Structure written by MMmdl.
 17 17  0  0  1  0            999 V2000
    2.7579   -0.7062    3.1010 C   0  0  1  0  0  0
    1.2848   -0.2736    3.2331 C   0  0  0  0  0  0
    3.4461   -0.0285    1.8987 C   0  0  0  0  0  0
    0.5142   -0.6287    2.3152 O   0  0  0  0  0  0
    4.2504    1.1105    2.5191 C   0  0  0  0  0  0
    4.6675    0.5274    3.8662 C   0  0  0  0  0  0
    2.8020   -1.7917    2.9993 H   0  0  0  0  0  0
    4.1192   -0.7377    1.4152 H   0  0  0  0  0  0
    2.7533    0.3301    1.1354 H   0  0  0  0  0  0
    5.0984    1.4179    1.9066 H   0  0  0  0  0  0
    3.6078    1.9794    2.6702 H   0  0  0  0  0  0
    4.9136    1.2936    4.6017 H   0  0  0  0  0  0
    5.5377   -0.1185    3.7422 H   0  0  0  0  0  0
    3.5250   -0.2965    4.2988 N   0  3  0  0  0  0
    2.8895    0.2756    4.8409 H   0  0  0  0  0  0
    3.8193   -1.0953    4.8409 H   0  0  0  0  0  0
    0.9438    0.3969    4.2354 O   0  5  0  0  0  0
  1  2  1  0  0  0
  1  3  1  0  0  0
  1  7  1  0  0  0
  1 14  1  0  0  0
  2  4  2  0  0  0
  2 17  1  0  0  0
  3  5  1  0  0  0
  3  8  1  0  0  0
  3  9  1  0  0  0
  5  6  1  0  0  0
  5 10  1  0  0  0
  5 11  1  0  0  0
  6 12  1  0  0  0
  6 13  1  0  0  0
  6 14  1  0  0  0
 14 15  1  0  0  0
 14 16  1  0  0  0
M  CHG  2  14   1  17  -1
M  END
> <i_ionizer_Ion_state_n>
3

> <i_ionizer_Tot_Q>
0

> <s_ionizer_Ion_centers>
14_17

> <s_ionizer_Ion_types>
N5_OM

> <s_ionizer_Ion_ctrs_in>
4_5

> <r_ionizer_Ionization_penalty>
0.000651435

> <r_ionizer_Ionization_penalty_charging>
0.000651435

> <r_ionizer_Ionization_penalty_neutral>
0

> <s_st_Chirality_1>
1_R_14_2_3_7

> <i_mmod_Serial_Number-OPLS-2005>
331

> <i_i_glide_lignum>
328

> <r_i_docking_score>
-5.1409

> <r_i_glide_gscore>
-5.1409

> <r_i_glide_lipo>
-0.399745

> <r_i_glide_hbond>
-0.5

> <r_i_glide_metal>
0

> <r_i_glide_eburp>
-2.5

> <r_i_glide_evdw>
-12.6142

> <r_i_glide_ecoul>
-5.39204

> <r_i_glide_erotb>
0

> <r_i_glide_esite>
-0.192812

> <r_i_glide_emodel>
-35.8538

> <r_i_glide_energy>
-18.0062

> <r_i_glide_einternal>
1.30377e-06

> <i_i_glide_confnum>
1

> <i_i_glide_posenum>
845

$$$$
C01312
                    3D
 Structure written by MMmdl.
 56 57  0  0  1  0            999 V2000
    1.0347    5.5372    2.7586 C   0  0  1  0  0  0
    2.3543    5.3046    2.0087 C   0  0  1  0  0  0
    0.0797    6.2375    1.7542 C   0  0  2  0  0  0
    0.5969    4.1528    3.2156 C   0  0  0  0  0  0
    2.5507    3.9009    1.8927 O   0  0  0  0  0  0
    2.1939    5.9522    0.6286 C   0  0  0  0  0  0
    1.0517    6.9512    0.8072 C   0  0  1  0  0  0
   -0.9163    7.2194    2.3773 C   0  0  0  0  0  0
    1.5805    3.2129    2.5653 C   0  0  0  0  0  0
    0.4510    7.2831   -0.4280 O   0  0  0  0  0  0
   -1.5237    7.7408    3.4672 C   0  0  0  0  0  0
    1.5641    1.8694    2.5889 C   0  0  0  0  0  0
   -2.3374    9.0189    3.4051 C   0  0  2  0  0  0
    0.5376    1.0085    3.2999 C   0  0  0  0  0  0
   -1.9387   10.0432    4.4865 C   0  0  0  0  0  0
   -3.7147    8.7244    3.5078 O   0  0  0  0  0  0
    1.1265    0.3224    4.5401 C   0  0  0  0  0  0
   -1.2167   11.3003    3.9643 C   0  0  0  0  0  0
    2.5085   -0.3018    4.2626 C   0  0  0  0  0  0
   -0.8672   12.2842    5.0905 C   0  0  0  0  0  0
    2.6533   -0.8456    2.8352 C   0  0  0  0  0  0
    0.0248   13.4380    4.6102 C   0  0  0  0  0  0
    3.7431   -0.6923    2.2396 O   0  0  0  0  0  0
    1.4574   12.9868    4.3051 C   0  0  0  0  0  0
    1.2173    6.1864    3.6168 H   0  0  0  0  0  0
    3.1867    5.7494    2.5555 H   0  0  0  0  0  0
   -0.4503    5.4831    1.1621 H   0  0  0  0  0  0
    0.6660    4.0573    4.2996 H   0  0  0  0  0  0
   -0.4243    3.9142    2.9165 H   0  0  0  0  0  0
    3.1136    6.4184    0.2741 H   0  0  0  0  0  0
    1.9072    5.1911   -0.0993 H   0  0  0  0  0  0
    1.4329    7.8598    1.2766 H   0  0  0  0  0  0
   -0.8543    6.3881    3.0585 H   0  0  0  0  0  0
   -0.1555    7.9941   -0.2876 H   0  0  0  0  0  0
   -1.4789    7.3120    4.4681 H   0  0  0  0  0  0
    2.3412    1.3332    2.0639 H   0  0  0  0  0  0
   -2.1799    9.4747    2.4263 H   0  0  0  0  0  0
   -0.2972    1.6470    3.5900 H   0  0  0  0  0  0
    0.1332    0.2588    2.6198 H   0  0  0  0  0  0
   -2.8365   10.3504    5.0245 H   0  0  0  0  0  0
   -1.3066    9.5473    5.2245 H   0  0  0  0  0  0
   -4.1859    9.2693    2.8965 H   0  0  0  0  0  0
    1.2077    1.0522    5.3474 H   0  0  0  0  0  0
    0.4367   -0.4491    4.8861 H   0  0  0  0  0  0
   -0.3020   11.0122    3.4454 H   0  0  0  0  0  0
   -1.8420   11.8103    3.2312 H   0  0  0  0  0  0
    3.2912    0.4393    4.4276 H   0  0  0  0  0  0
    2.6945   -1.1187    4.9606 H   0  0  0  0  0  0
   -1.7861   12.6897    5.5159 H   0  0  0  0  0  0
   -0.3638   11.7490    5.8967 H   0  0  0  0  0  0
   -0.4077   13.8874    3.7155 H   0  0  0  0  0  0
    0.0496   14.2219    5.3680 H   0  0  0  0  0  0
    2.0653   13.8262    3.9670 H   0  0  0  0  0  0
    1.9348   12.5657    5.1903 H   0  0  0  0  0  0
    1.4733   12.2282    3.5221 H   0  0  0  0  0  0
    1.6485   -1.4166    2.3583 O   0  5  0  0  0  0
  1  2  1  0  0  0
  1  3  1  0  0  0
  1  4  1  0  0  0
  1 25  1  0  0  0
  2  5  1  0  0  0
  2  6  1  0  0  0
  2 26  1  0  0  0
  3  7  1  0  0  0
  3  8  1  0  0  0
  3 27  1  0  0  0
  4  9  1  0  0  0
  4 28  1  0  0  0
  4 29  1  0  0  0
  5  9  1  0  0  0
  6  7  1  0  0  0
  6 30  1  0  0  0
  6 31  1  0  0  0
  7 10  1  0  0  0
  7 32  1  0  0  0
  8 11  2  0  0  0
  8 33  1  0  0  0
  9 12  2  0  0  0
 10 34  1  0  0  0
 11 13  1  0  0  0
 11 35  1  0  0  0
 12 14  1  0  0  0
 12 36  1  0  0  0
 13 15  1  0  0  0
 13 16  1  0  0  0
 13 37  1  0  0  0
 14 17  1  0  0  0
 14 38  1  0  0  0
 14 39  1  0  0  0
 15 18  1  0  0  0
 15 40  1  0  0  0
 15 41  1  0  0  0
 16 42  1  0  0  0
 17 19  1  0  0  0
 17 43  1  0  0  0
 17 44  1  0  0  0
 18 20  1  0  0  0
 18 45  1  0  0  0
 18 46  1  0  0  0
 19 21  1  0  0  0
 19 47  1  0  0  0
 19 48  1  0  0  0
 20 22  1  0  0  0
 20 49  1  0  0  0
 20 50  1  0  0  0
 21 23  2  0  0  0
 21 56  1  0  0  0
 22 24  1  0  0  0
 22 51  1  0  0  0
 22 52  1  0  0  0
 24 53  1  0  0  0
 24 54  1  0  0  0
 24 55  1  0  0  0
M  CHG  1  56  -1
M  END
> <i_ionizer_Ion_state_n>
1

> <i_ionizer_Tot_Q>
-1

> <s_ionizer_Ion_centers>
56

> <s_ionizer_Ion_types>
OM

> <s_ionizer_Ion_ctrs_in>
23

> <r_ionizer_Ionization_penalty>
0.00059219

> <r_ionizer_Ionization_penalty_charging>
0.00059219

> <r_ionizer_Ionization_penalty_neutral>
0

> <s_st_Chirality_1>
1_R_2_3_4_25

> <s_st_Chirality_2>
2_S_5_1_6_26

> <s_st_Chirality_3>
3_R_7_1_8_27

> <s_st_Chirality_4>
7_R_10_3_6_32

> <s_st_Chirality_5>
13_S_16_11_15_37

> <s_st_EZ_1>
3_8_11_13_E

> <s_st_EZ_2>
5_9_12_14_E

> <i_mmod_Serial_Number-OPLS-2005>
439

> <i_i_glide_lignum>
435

> <r_i_docking_score>
-5.13064

> <r_i_glide_gscore>
-5.13064

> <r_i_glide_lipo>
-1.39254

> <r_i_glide_hbond>
-0.816483

> <r_i_glide_metal>
0

> <r_i_glide_eburp>
-1.12525

> <r_i_glide_evdw>
-27.1413

> <r_i_glide_ecoul>
-8.51816

> <r_i_glide_erotb>
1.41168

> <r_i_glide_esite>
-0.184926

> <r_i_glide_emodel>
-53.1482

> <r_i_glide_energy>
-35.6595

> <r_i_glide_einternal>
13.3441

> <i_i_glide_confnum>
72

> <i_i_glide_posenum>
31

$$$$
C01345
                    3D
 Structure written by MMmdl.
 41 43  0  0  1  0            999 V2000
    0.7684    5.6780    1.2225 N   0  0  0  0  0  0
   -0.1757    6.6807    1.0187 C   0  0  0  0  0  0
    2.0462    5.4742    0.4598 C   0  0  2  0  0  0
    0.2535    4.9237    2.2168 C   0  0  0  0  0  0
   -1.1763    6.4594    1.9265 C   0  0  0  0  0  0
   -0.0845    7.6857    0.0763 N   0  0  0  0  0  0
    2.2379    4.1019    0.2694 O   0  0  0  0  0  0
    3.2364    5.9495    1.2925 C   0  0  0  0  0  0
   -0.9203    5.3322    2.6956 N   0  0  0  0  0  0
   -2.3213    7.4007    1.9406 C   0  0  0  0  0  0
   -1.1059    8.5013    0.1230 C   0  0  0  0  0  0
    3.1868    3.5934    1.2144 C   0  0  1  0  0  0
    3.4653    4.7479    2.1826 C   0  0  1  0  0  0
   -2.1999    8.3842    1.0166 N   0  0  0  0  0  0
   -3.2803    7.3015    2.7033 O   0  0  0  0  0  0
    2.6686    2.3116    1.8776 C   0  0  0  0  0  0
    4.7785    4.7345    2.6998 O   0  0  0  0  0  0
    2.9654    1.2057    1.0495 O   0  0  0  0  0  0
    4.4985    0.4692    1.0617 P   0  0  0  0  0  0
    5.0298    0.5509    2.6763 O   0  0  0  0  0  0
    4.3282   -0.9559    0.6950 O   0  0  0  0  0  0
    4.4251    1.1472    4.1521 P   0  0  0  0  0  0
    2.9121    0.3993    4.3657 O   0  0  0  0  0  0
    5.3146    0.6882    5.2455 O   0  0  0  0  0  0
    1.4392   -0.2035    3.5579 P   0  0  0  0  0  0
    2.0095   -1.0870    2.4260 O   0  0  0  0  0  0
    1.8986    6.0125   -0.4767 H   0  0  0  0  0  0
    0.7435    4.0412    2.5992 H   0  0  0  0  0  0
    4.0831    6.1141    0.6245 H   0  0  0  0  0  0
    3.0286    6.8704    1.8377 H   0  0  0  0  0  0
   -1.1939    9.3581   -0.5466 H   0  0  0  0  0  0
    4.0858    3.3674    0.6385 H   0  0  0  0  0  0
    2.7435    4.7535    2.9978 H   0  0  0  0  0  0
   -2.9399    9.0686    0.9685 H   0  0  0  0  0  0
    3.0989    2.1740    2.8679 H   0  0  0  0  0  0
    1.5875    2.3769    2.0008 H   0  0  0  0  0  0
    5.3426    5.1474    2.0533 H   0  0  0  0  0  0
    5.4038    1.3115    0.2467 O   0  5  0  0  0  0
    4.1996    2.6024    3.9848 O   0  5  0  0  0  0
    0.7159   -0.9506    4.7012 O   0  5  0  0  0  0
    0.7701    1.1124    3.0982 O   0  5  0  0  0  0
  1  2  1  0  0  0
  1  3  1  0  0  0
  1  4  1  0  0  0
  2  5  2  0  0  0
  2  6  1  0  0  0
  3  7  1  0  0  0
  3  8  1  0  0  0
  3 27  1  0  0  0
  4  9  2  0  0  0
  4 28  1  0  0  0
  5 10  1  0  0  0
  5  9  1  0  0  0
  6 11  2  0  0  0
  7 12  1  0  0  0
  8 13  1  0  0  0
  8 29  1  0  0  0
  8 30  1  0  0  0
 10 14  1  0  0  0
 10 15  2  0  0  0
 11 14  1  0  0  0
 11 31  1  0  0  0
 12 16  1  0  0  0
 12 13  1  0  0  0
 12 32  1  0  0  0
 13 17  1  0  0  0
 13 33  1  0  0  0
 14 34  1  0  0  0
 16 18  1  0  0  0
 16 35  1  0  0  0
 16 36  1  0  0  0
 17 37  1  0  0  0
 18 19  1  0  0  0
 19 20  1  0  0  0
 19 21  2  0  0  0
 19 38  1  0  0  0
 20 22  1  0  0  0
 22 23  1  0  0  0
 22 24  2  0  0  0
 22 39  1  0  0  0
 23 25  1  0  0  0
 25 26  2  0  0  0
 25 40  1  0  0  0
 25 41  1  0  0  0
M  CHG  4  38  -1  39  -1  40  -1  41  -1
M  END
> <i_ionizer_Ion_state_n>
30

> <i_ionizer_Tot_Q>
-4

> <s_ionizer_Ion_centers>
38_39_40_41

> <s_ionizer_Ion_types>
OM_OM_OM_OM

> <s_ionizer_Ion_ctrs_in>
21_25_28_29

> <r_ionizer_Ionization_penalty>
4.85714e-05

> <r_ionizer_Ionization_penalty_charging>
2.98356e-05

> <r_ionizer_Ionization_penalty_neutral>
1.87357e-05

> <s_st_Chirality_1>
3_R_7_1_8_27

> <s_st_Chirality_2>
12_R_7_13_16_32

> <s_st_Chirality_3>
13_S_17_12_8_33

> <i_mmod_Serial_Number-OPLS-2005>
441

> <i_i_glide_lignum>
437

> <r_i_docking_score>
-5.12911

> <r_i_glide_gscore>
-5.12911

> <r_i_glide_lipo>
-0.517196

> <r_i_glide_hbond>
-1.08605

> <r_i_glide_metal>
0

> <r_i_glide_eburp>
-0.0898517

> <r_i_glide_evdw>
-33.904

> <r_i_glide_ecoul>
-9.67015

> <r_i_glide_erotb>
0.682703

> <r_i_glide_esite>
-0.439374

> <r_i_glide_emodel>
-100.243

> <r_i_glide_energy>
-43.5742

> <r_i_glide_einternal>
6.15679

> <i_i_glide_confnum>
94

> <i_i_glide_posenum>
109

$$$$
C05382
                    3D
 Structure written by MMmdl.
 31 30  0  0  1  0            999 V2000
    4.7023    0.1469    1.8543 C   0  0  2  0  0  0
    3.3886   -0.2155    2.6213 C   0  0  1  0  0  0
    5.0862   -0.8131    0.6812 C   0  0  2  0  0  0
    5.7460    0.0964    2.8139 O   0  0  0  0  0  0
    3.0949    0.6568    3.8748 C   0  0  1  0  0  0
    2.2704   -0.0258    1.7742 O   0  0  0  0  0  0
    6.1533   -0.2244   -0.2585 C   0  0  0  0  0  0
    3.9447   -1.1073   -0.1052 O   0  0  0  0  0  0
    1.7532    0.3030    4.5592 C   0  0  0  0  0  0
    4.0795    0.4983    4.8751 O   0  0  0  0  0  0
    6.6658   -1.1439   -1.3736 C   0  0  0  0  0  0
    6.5803    0.9225   -0.1103 O   0  0  0  0  0  0
    0.9271    1.4401    4.7517 O   0  0  0  0  0  0
    5.7177   -2.1396   -1.7063 O   0  0  0  0  0  0
    0.6872    2.5191    3.3355 P   0  0  0  0  0  0
   -0.2902    3.5875    3.8782 O   0  0  0  0  0  0
    4.6278    1.1677    1.4771 H   0  0  0  0  0  0
    3.4141   -1.2677    2.9067 H   0  0  0  0  0  0
    5.4705   -1.7474    1.0912 H   0  0  0  0  0  0
    5.7729   -0.7727    3.1840 H   0  0  0  0  0  0
    3.0868    1.7032    3.5698 H   0  0  0  0  0  0
    2.3062    0.8505    1.4216 H   0  0  0  0  0  0
    4.0875   -0.7812   -0.9801 H   0  0  0  0  0  0
    1.1839   -0.3988    3.9513 H   0  0  0  0  0  0
    1.9095   -0.2032    5.5127 H   0  0  0  0  0  0
    4.1255   -0.4317    5.0782 H   0  0  0  0  0  0
    6.8948   -0.5551   -2.2615 H   0  0  0  0  0  0
    7.5900   -1.6218   -1.0484 H   0  0  0  0  0  0
    4.9603   -1.7215   -2.0863 H   0  0  0  0  0  0
    2.1286    3.0034    3.0667 O   0  5  0  0  0  0
    0.1009    1.5371    2.2982 O   0  5  0  0  0  0
  1  2  1  0  0  0
  1  3  1  0  0  0
  1  4  1  0  0  0
  1 17  1  0  0  0
  2  5  1  0  0  0
  2  6  1  0  0  0
  2 18  1  0  0  0
  3  7  1  0  0  0
  3  8  1  0  0  0
  3 19  1  0  0  0
  4 20  1  0  0  0
  5  9  1  0  0  0
  5 10  1  0  0  0
  5 21  1  0  0  0
  6 22  1  0  0  0
  7 11  1  0  0  0
  7 12  2  0  0  0
  8 23  1  0  0  0
  9 13  1  0  0  0
  9 24  1  0  0  0
  9 25  1  0  0  0
 10 26  1  0  0  0
 11 14  1  0  0  0
 11 27  1  0  0  0
 11 28  1  0  0  0
 13 15  1  0  0  0
 14 29  1  0  0  0
 15 16  2  0  0  0
 15 30  1  0  0  0
 15 31  1  0  0  0
M  CHG  2  30  -1  31  -1
M  END
> <i_ionizer_Ion_state_n>
3

> <i_ionizer_Tot_Q>
-2

> <s_ionizer_Ion_centers>
30_31

> <s_ionizer_Ion_types>
OM_OM

> <s_ionizer_Ion_ctrs_in>
16_17

> <r_ionizer_Ionization_penalty>
1.49178e-05

> <r_ionizer_Ionization_penalty_charging>
1.49178e-05

> <r_ionizer_Ionization_penalty_neutral>
0

> <s_st_Chirality_1>
1_R_4_3_2_17

> <s_st_Chirality_2>
2_R_6_1_5_18

> <s_st_Chirality_3>
3_R_8_7_1_19

> <s_st_Chirality_4>
5_R_10_2_9_21

> <i_mmod_Serial_Number-OPLS-2005>
680

> <i_i_glide_lignum>
673

> <r_i_docking_score>
-5.12357

> <r_i_glide_gscore>
-5.12357

> <r_i_glide_lipo>
-0.63975

> <r_i_glide_hbond>
-2.41795

> <r_i_glide_metal>
0

> <r_i_glide_eburp>
-1.18698

> <r_i_glide_evdw>
-17.3797

> <r_i_glide_ecoul>
-24.0836

> <r_i_glide_erotb>
3.50485

> <r_i_glide_esite>
-0.584999

> <r_i_glide_emodel>
-81.4862

> <r_i_glide_energy>
-41.4634

> <r_i_glide_einternal>
11.6333

> <i_i_glide_confnum>
27

> <i_i_glide_posenum>
699

$$$$
C07718
                    3D
 Structure written by MMmdl.
 26 27  0  0  1  0            999 V2000
   -0.8013    5.8851    1.7725 C   0  0  0  0  0  0
    0.2478    6.4267    1.0352 C   0  0  0  0  0  0
   -0.3972    4.5927    2.3390 C   0  0  0  0  0  0
   -2.0313    6.5561    1.8971 C   0  0  0  0  0  0
    1.4546    5.5267    1.0500 C   0  0  0  0  0  0
    0.1181    7.6671    0.3858 C   0  0  0  0  0  0
    1.0026    4.3481    1.9032 C   0  0  0  0  0  0
   -1.1072    3.8720    3.0386 O   0  0  0  0  0  0
   -2.1775    7.8036    1.2503 C   0  0  0  0  0  0
   -1.1107    8.3549    0.5003 C   0  0  0  0  0  0
    1.7761    3.2787    2.1917 C   0  0  0  0  0  0
    1.4222    2.1159    2.9957 C   0  0  0  0  0  0
    1.8239    0.8567    2.7241 C   0  0  0  0  0  0
    1.4380   -0.3831    3.5937 C   0  0  0  0  0  0
    2.5989    0.6018    1.6597 O   0  0  0  0  0  0
    0.9008   -0.1556    4.7001 O   0  0  0  0  0  0
   -2.8419    6.1305    2.4707 H   0  0  0  0  0  0
    1.7123    5.2039    0.0408 H   0  0  0  0  0  0
    2.3109    6.0304    1.4997 H   0  0  0  0  0  0
    0.9352    8.0831   -0.1852 H   0  0  0  0  0  0
   -3.1111    8.3410    1.3289 H   0  0  0  0  0  0
   -1.2372    9.3095    0.0113 H   0  0  0  0  0  0
    2.7712    3.2992    1.7718 H   0  0  0  0  0  0
    0.8007    2.2512    3.8663 H   0  0  0  0  0  0
    3.0109   -0.2342    1.8288 H   0  0  0  0  0  0
    1.7071   -1.4980    3.0929 O   0  5  0  0  0  0
  1  2  2  0  0  0
  1  3  1  0  0  0
  1  4  1  0  0  0
  2  5  1  0  0  0
  2  6  1  0  0  0
  3  7  1  0  0  0
  3  8  2  0  0  0
  4  9  2  0  0  0
  4 17  1  0  0  0
  5  7  1  0  0  0
  5 18  1  0  0  0
  5 19  1  0  0  0
  6 10  2  0  0  0
  6 20  1  0  0  0
  7 11  2  0  0  0
  9 10  1  0  0  0
  9 21  1  0  0  0
 10 22  1  0  0  0
 11 12  1  0  0  0
 11 23  1  0  0  0
 12 13  2  0  0  0
 12 24  1  0  0  0
 13 14  1  0  0  0
 13 15  1  0  0  0
 14 16  2  0  0  0
 14 26  1  0  0  0
 15 25  1  0  0  0
M  CHG  1  26  -1
M  END
> <i_ionizer_Ion_state_n>
1

> <i_ionizer_Tot_Q>
-1

> <s_ionizer_Ion_centers>
26

> <s_ionizer_Ion_types>
OM

> <s_ionizer_Ion_ctrs_in>
16

> <r_ionizer_Ionization_penalty>
0.00059219

> <r_ionizer_Ionization_penalty_charging>
0.00059219

> <r_ionizer_Ionization_penalty_neutral>
0

> <s_st_EZ_1>
3_7_11_12_Z

> <i_mmod_Serial_Number-OPLS-2005>
904

> <i_i_glide_lignum>
892

> <r_i_docking_score>
-5.11522

> <r_i_glide_gscore>
-5.11522

> <r_i_glide_lipo>
-1.01387

> <r_i_glide_hbond>
-1.03096

> <r_i_glide_metal>
0

> <r_i_glide_eburp>
-2.05141

> <r_i_glide_evdw>
-23.4923

> <r_i_glide_ecoul>
-5.4902

> <r_i_glide_erotb>
1.11316

> <r_i_glide_esite>
0.296246

> <r_i_glide_emodel>
-51.28

> <r_i_glide_energy>
-28.9825

> <r_i_glide_einternal>
2.54112

> <i_i_glide_confnum>
7

> <i_i_glide_posenum>
781

$$$$
C06099
                    3D
 Structure written by MMmdl.
 26 26  0  0  1  0            999 V2000
    2.0345    1.2216    3.0352 C   0  0  2  0  0  0
    1.0491    0.0551    3.1482 C   0  0  0  0  0  0
    3.1259    1.2476    4.1261 C   0  0  0  0  0  0
    1.3019    2.5813    2.9881 C   0  0  0  0  0  0
    0.2157   -0.2113    1.9069 C   0  0  0  0  0  0
    0.9059   -0.7097    4.2467 C   0  0  0  0  0  0
    4.1668    2.3513    3.8660 C   0  0  0  0  0  0
    2.2468    3.7662    3.0876 C   0  0  0  0  0  0
    3.5334    3.6769    3.4729 C   0  0  0  0  0  0
    4.4499    4.8826    3.5223 C   0  0  0  0  0  0
    2.5510    1.0864    2.0834 H   0  0  0  0  0  0
    2.6653    1.4211    5.0998 H   0  0  0  0  0  0
    3.6347    0.2847    4.1859 H   0  0  0  0  0  0
    0.7390    2.6734    2.0592 H   0  0  0  0  0  0
    0.5828    2.6562    3.8046 H   0  0  0  0  0  0
   -0.4050   -1.1000    2.0260 H   0  0  0  0  0  0
   -0.4455    0.6290    1.6962 H   0  0  0  0  0  0
    0.8612   -0.3672    1.0423 H   0  0  0  0  0  0
    0.1955   -1.5231    4.2651 H   0  0  0  0  0  0
    1.4819   -0.5490    5.1450 H   0  0  0  0  0  0
    4.7787    2.4900    4.7579 H   0  0  0  0  0  0
    4.8414    2.0485    3.0646 H   0  0  0  0  0  0
    1.8293    4.7283    2.8287 H   0  0  0  0  0  0
    3.9303    5.7919    3.2184 H   0  0  0  0  0  0
    4.8278    5.0298    4.5343 H   0  0  0  0  0  0
    5.3001    4.7377    2.8554 H   0  0  0  0  0  0
  1  2  1  0  0  0
  1  3  1  0  0  0
  1  4  1  0  0  0
  1 11  1  0  0  0
  2  5  1  0  0  0
  2  6  2  0  0  0
  3  7  1  0  0  0
  3 12  1  0  0  0
  3 13  1  0  0  0
  4  8  1  0  0  0
  4 14  1  0  0  0
  4 15  1  0  0  0
  5 16  1  0  0  0
  5 17  1  0  0  0
  5 18  1  0  0  0
  6 19  1  0  0  0
  6 20  1  0  0  0
  7  9  1  0  0  0
  7 21  1  0  0  0
  7 22  1  0  0  0
  8  9  2  0  0  0
  8 23  1  0  0  0
  9 10  1  0  0  0
 10 24  1  0  0  0
 10 25  1  0  0  0
 10 26  1  0  0  0
M  END
> <i_ionizer_Ion_state_n>
0

> <i_ionizer_Tot_Q>
0

> <s_ionizer_Ion_centers>


> <s_ionizer_Ion_types>


> <s_ionizer_Ion_ctrs_in>


> <r_ionizer_Ionization_penalty>
0

> <r_ionizer_Ionization_penalty_charging>
0

> <r_ionizer_Ionization_penalty_neutral>
0

> <s_st_Chirality_1>
1_R_2_4_3_11

> <s_st_EZ_1>
4_8_9_7_Z

> <i_mmod_Serial_Number-OPLS-2005>
854

> <i_i_glide_lignum>
842

> <r_i_docking_score>
-5.11487

> <r_i_glide_gscore>
-5.11487

> <r_i_glide_lipo>
-0.956996

> <r_i_glide_hbond>
0

> <r_i_glide_metal>
0

> <r_i_glide_eburp>
-2.5

> <r_i_glide_evdw>
-19.2152

> <r_i_glide_ecoul>
-0.154568

> <r_i_glide_erotb>
0.869971

> <r_i_glide_esite>
-0.975175

> <r_i_glide_emodel>
-23.6844

> <r_i_glide_energy>
-19.3698

> <r_i_glide_einternal>
0.0484161

> <i_i_glide_confnum>
1

> <i_i_glide_posenum>
947

$$$$
C11405
                    3D
 Structure written by MMmdl.
 28 27  0  0  1  0            999 V2000
    0.1060    3.7210    3.3840 C   0  0  0  0  0  0
    1.8971   -0.5613    3.3239 C   0  0  0  0  0  0
    1.2730   -0.5940    4.7147 C   0  0  0  0  0  0
    1.3379   -1.0978    2.3679 O   0  0  0  0  0  0
    3.2369    0.1678    3.1865 C   0  0  0  0  0  0
    3.2654    1.5495    3.8825 C   0  0  0  0  0  0
    2.4636    2.6883    3.1957 C   0  0  2  0  0  0
    0.9321    2.4591    3.1015 C   0  0  0  0  0  0
    0.7115    4.6855    3.9000 O   0  0  0  0  0  0
    3.0554    3.1063    1.8477 C   0  0  0  0  0  0
    3.0766    2.0789    0.7297 C   0  0  0  0  0  0
    3.5492    4.3414    1.6517 C   0  0  0  0  0  0
    0.3257   -1.1338    4.7023 H   0  0  0  0  0  0
    1.9421   -1.0901    5.4178 H   0  0  0  0  0  0
    1.0866    0.4196    5.0699 H   0  0  0  0  0  0
    3.4404    0.2797    2.1219 H   0  0  0  0  0  0
    4.0112   -0.4878    3.5777 H   0  0  0  0  0  0
    4.2965    1.8801    4.0173 H   0  0  0  0  0  0
    2.8731    1.4202    4.8925 H   0  0  0  0  0  0
    2.6029    3.5585    3.8397 H   0  0  0  0  0  0
    0.6174    1.6677    3.7822 H   0  0  0  0  0  0
    0.6737    2.1180    2.0986 H   0  0  0  0  0  0
    3.3455    2.5396   -0.2214 H   0  0  0  0  0  0
    3.8160    1.3060    0.9359 H   0  0  0  0  0  0
    2.1007    1.6110    0.6050 H   0  0  0  0  0  0
    3.9691    4.6326    0.7001 H   0  0  0  0  0  0
    3.5426    5.0828    2.4373 H   0  0  0  0  0  0
   -1.1112    3.7018    3.0964 O   0  5  0  0  0  0
  1  9  2  0  0  0
  1  8  1  0  0  0
  1 28  1  0  0  0
  2  3  1  0  0  0
  2  4  2  0  0  0
  2  5  1  0  0  0
  3 13  1  0  0  0
  3 14  1  0  0  0
  3 15  1  0  0  0
  5  6  1  0  0  0
  5 16  1  0  0  0
  5 17  1  0  0  0
  6  7  1  0  0  0
  6 18  1  0  0  0
  6 19  1  0  0  0
  7  8  1  0  0  0
  7 10  1  0  0  0
  7 20  1  0  0  0
  8 21  1  0  0  0
  8 22  1  0  0  0
 10 11  1  0  0  0
 10 12  2  0  0  0
 11 23  1  0  0  0
 11 24  1  0  0  0
 11 25  1  0  0  0
 12 26  1  0  0  0
 12 27  1  0  0  0
M  CHG  1  28  -1
M  END
> <i_ionizer_Ion_state_n>
1

> <i_ionizer_Tot_Q>
-1

> <s_ionizer_Ion_centers>
28

> <s_ionizer_Ion_types>
OM

> <s_ionizer_Ion_ctrs_in>
2

> <r_ionizer_Ionization_penalty>
0.00059219

> <r_ionizer_Ionization_penalty_charging>
0.00059219

> <r_ionizer_Ionization_penalty_neutral>
0

> <s_st_Chirality_1>
7_R_10_8_6_20

> <i_mmod_Serial_Number-OPLS-2005>
930

> <i_i_glide_lignum>
914

> <r_i_docking_score>
-5.1146

> <r_i_glide_gscore>
-5.1146

> <r_i_glide_lipo>
-0.617052

> <r_i_glide_hbond>
-1.57462

> <r_i_glide_metal>
0

> <r_i_glide_eburp>
-2.39978

> <r_i_glide_evdw>
-19.3344

> <r_i_glide_ecoul>
-4.74768

> <r_i_glide_erotb>
2.15817

> <r_i_glide_esite>
-0.659806

> <r_i_glide_emodel>
-46.2742

> <r_i_glide_energy>
-24.0821

> <r_i_glide_einternal>
8.78397

> <i_i_glide_confnum>
59

> <i_i_glide_posenum>
27

$$$$
C01104
                    3D
 Structure written by MMmdl.
 14 13  0  0  1  0            999 V2000
    2.1387   -0.3390    3.2312 N   0  3  0  0  0  0
    3.6440   -0.2461    3.1121 C   0  0  0  0  0  0
    1.7596   -0.2571    4.6936 C   0  0  0  0  0  0
    1.5188    0.8319    2.5008 C   0  0  0  0  0  0
    1.7017   -1.5003    2.7025 O   0  5  0  0  0  0
    3.9070   -0.2975    2.0547 H   0  0  0  0  0  0
    3.9763    0.6985    3.5448 H   0  0  0  0  0  0
    4.0820   -1.0890    3.6484 H   0  0  0  0  0  0
    0.6730   -0.3164    4.7688 H   0  0  0  0  0  0
    2.2176   -1.0999    5.2131 H   0  0  0  0  0  0
    2.1216    0.6877    5.1013 H   0  0  0  0  0  0
    0.4348    0.7611    2.5993 H   0  0  0  0  0  0
    1.8846    1.7595    2.9431 H   0  0  0  0  0  0
    1.8043    0.7691    1.4499 H   0  0  0  0  0  0
  1  2  1  0  0  0
  1  3  1  0  0  0
  1  4  1  0  0  0
  1  5  1  0  0  0
  2  6  1  0  0  0
  2  7  1  0  0  0
  2  8  1  0  0  0
  3  9  1  0  0  0
  3 10  1  0  0  0
  3 11  1  0  0  0
  4 12  1  0  0  0
  4 13  1  0  0  0
  4 14  1  0  0  0
M  CHG  2   1   1   5  -1
M  END
> <i_ionizer_Ion_state_n>
0

> <i_ionizer_Tot_Q>
0

> <s_ionizer_Ion_centers>


> <s_ionizer_Ion_types>


> <s_ionizer_Ion_ctrs_in>


> <r_ionizer_Ionization_penalty>
0

> <r_ionizer_Ionization_penalty_charging>
0

> <r_ionizer_Ionization_penalty_neutral>
0

> <i_mmod_Serial_Number-OPLS-2005>
394

> <i_i_glide_lignum>
390

> <r_i_docking_score>
-5.11145

> <r_i_glide_gscore>
-5.11145

> <r_i_glide_lipo>
-0.248784

> <r_i_glide_hbond>
-0.296891

> <r_i_glide_metal>
0

> <r_i_glide_eburp>
-2.5

> <r_i_glide_evdw>
-9.49601

> <r_i_glide_ecoul>
-8.60738

> <r_i_glide_erotb>
0

> <r_i_glide_esite>
-0.445359

> <r_i_glide_emodel>
-20.0471

> <r_i_glide_energy>
-18.1034

> <r_i_glide_einternal>
0

> <i_i_glide_confnum>
1

> <i_i_glide_posenum>
488

$$$$
C01211
                    3D
 Structure written by MMmdl.
 26 25  0  0  1  0            999 V2000
    2.7941   -0.9405    2.5006 C   0  0  0  0  0  0
    2.9598   -0.2920    1.1103 C   0  0  0  0  0  0
    2.5311    0.0715    3.6406 C   0  0  1  0  0  0
    4.3047    0.4348    0.9268 C   0  0  1  0  0  0
    1.1964    0.8099    3.4622 C   0  0  0  0  0  0
    5.4286   -0.5449    0.5413 C   0  0  0  0  0  0
    4.1602    1.3978   -0.1002 O   0  0  0  0  0  0
    0.9000    1.6879    4.3038 O   0  0  0  0  0  0
    1.9919   -1.6793    2.4621 H   0  0  0  0  0  0
    3.6994   -1.5006    2.7376 H   0  0  0  0  0  0
    2.8805   -1.0654    0.3456 H   0  0  0  0  0  0
    2.1361    0.3992    0.9256 H   0  0  0  0  0  0
    3.3495    0.7930    3.6711 H   0  0  0  0  0  0
    4.5618    0.9445    1.8567 H   0  0  0  0  0  0
    2.3587    0.0785    5.6720 H   0  0  0  0  0  0
    1.7298   -1.2629    4.9529 H   0  0  0  0  0  0
    6.2854    0.0063    0.1519 H   0  0  0  0  0  0
    5.7786   -1.0969    1.4148 H   0  0  0  0  0  0
    3.8612    0.9717   -0.8888 H   0  0  0  0  0  0
    5.7745   -2.0991   -0.7414 H   0  0  0  0  0  0
    4.2379   -2.0568   -0.1495 H   0  0  0  0  0  0
    2.4998   -0.6092    4.9460 N   0  3  0  0  0  0
    3.3693   -1.0982    5.1003 H   0  0  0  0  0  0
    0.4985    0.4911    2.4756 O   0  5  0  0  0  0
    5.0010   -1.4959   -0.4999 N   0  3  0  0  0  0
    4.7016   -0.9897   -1.3211 H   0  0  0  0  0  0
  1  2  1  0  0  0
  1  3  1  0  0  0
  1  9  1  0  0  0
  1 10  1  0  0  0
  2  4  1  0  0  0
  2 11  1  0  0  0
  2 12  1  0  0  0
  3  5  1  0  0  0
  3 13  1  0  0  0
  3 22  1  0  0  0
  4  6  1  0  0  0
  4  7  1  0  0  0
  4 14  1  0  0  0
  5  8  2  0  0  0
  5 24  1  0  0  0
  6 17  1  0  0  0
  6 18  1  0  0  0
  6 25  1  0  0  0
  7 19  1  0  0  0
 15 22  1  0  0  0
 16 22  1  0  0  0
 20 25  1  0  0  0
 21 25  1  0  0  0
 22 23  1  0  0  0
 25 26  1  0  0  0
M  CHG  3  22   1  24  -1  25   1
M  END
> <i_ionizer_Ion_state_n>
7

> <i_ionizer_Tot_Q>
1

> <s_ionizer_Ion_centers>
22_24_25

> <s_ionizer_Ion_types>
N5_OM_N5

> <s_ionizer_Ion_ctrs_in>
6_9_11

> <r_ionizer_Ionization_penalty>
0.000966851

> <r_ionizer_Ionization_penalty_charging>
0.000966851

> <r_ionizer_Ionization_penalty_neutral>
0

> <s_st_Chirality_1>
3_S_22_5_1_13

> <s_st_Chirality_2>
4_S_7_6_2_14

> <i_mmod_Serial_Number-OPLS-2005>
422

> <i_i_glide_lignum>
418

> <r_i_docking_score>
-5.10468

> <r_i_glide_gscore>
-5.10468

> <r_i_glide_lipo>
-0.460601

> <r_i_glide_hbond>
-1.59938

> <r_i_glide_metal>
0

> <r_i_glide_eburp>
-2.5

> <r_i_glide_evdw>
-10.9889

> <r_i_glide_ecoul>
-11.2494

> <r_i_glide_erotb>
1.95561

> <r_i_glide_esite>
-0.496255

> <r_i_glide_emodel>
-46.273

> <r_i_glide_energy>
-22.2383

> <r_i_glide_einternal>
6.75316

> <i_i_glide_confnum>
15

> <i_i_glide_posenum>
254

$$$$
C02642
                    3D
 Structure written by MMmdl.
 16 15  0  0  1  0            999 V2000
   -0.1597    3.3911    3.1605 C   0  0  0  0  0  0
    0.8060    2.5729    2.2938 C   0  0  0  0  0  0
   -1.2788    3.6964    2.6911 O   0  0  0  0  0  0
    2.0421    2.0759    3.0675 C   0  0  0  0  0  0
    1.7001    0.9180    3.8831 N   0  0  0  0  0  0
    1.0570   -0.1623    3.4233 C   0  0  0  0  0  0
    0.9010   -1.0999    4.3570 N   0  0  0  0  0  0
    0.6481   -0.2940    2.2721 O   0  0  0  0  0  0
    0.2588    1.7250    1.8801 H   0  0  0  0  0  0
    1.1168    3.1917    1.4513 H   0  0  0  0  0  0
    2.8399    1.8014    2.3747 H   0  0  0  0  0  0
    2.4300    2.8657    3.7135 H   0  0  0  0  0  0
    1.9721    0.9477    4.8541 H   0  0  0  0  0  0
    0.4274   -1.9574    4.1143 H   0  0  0  0  0  0
    1.2497   -0.9576    5.2926 H   0  0  0  0  0  0
    0.2504    3.7014    4.3000 O   0  5  0  0  0  0
  1  2  1  0  0  0
  1  3  2  0  0  0
  1 16  1  0  0  0
  2  4  1  0  0  0
  2  9  1  0  0  0
  2 10  1  0  0  0
  4  5  1  0  0  0
  4 11  1  0  0  0
  4 12  1  0  0  0
  5  6  1  0  0  0
  5 13  1  0  0  0
  6  7  1  0  0  0
  6  8  2  0  0  0
  7 14  1  0  0  0
  7 15  1  0  0  0
M  CHG  1  16  -1
M  END
> <i_ionizer_Ion_state_n>
1

> <i_ionizer_Tot_Q>
-1

> <s_ionizer_Ion_centers>
16

> <s_ionizer_Ion_types>
OM

> <s_ionizer_Ion_ctrs_in>
3

> <r_ionizer_Ionization_penalty>
0.00059219

> <r_ionizer_Ionization_penalty_charging>
0.00059219

> <r_ionizer_Ionization_penalty_neutral>
0

> <i_mmod_Serial_Number-OPLS-2005>
502

> <i_i_glide_lignum>
497

> <r_i_docking_score>
-5.09541

> <r_i_glide_gscore>
-5.09541

> <r_i_glide_lipo>
-0.137589

> <r_i_glide_hbond>
-1.81462

> <r_i_glide_metal>
0

> <r_i_glide_eburp>
-2.9

> <r_i_glide_evdw>
-12.0376

> <r_i_glide_ecoul>
-9.47665

> <r_i_glide_erotb>
1.84809

> <r_i_glide_esite>
-0.180621

> <r_i_glide_emodel>
-46.2364

> <r_i_glide_energy>
-21.5142

> <r_i_glide_einternal>
1.41476

> <i_i_glide_confnum>
3

> <i_i_glide_posenum>
81

$$$$
C03479
                    3D
 Structure written by MMmdl.
 55 57  0  0  1  0            999 V2000
   -2.5555   11.4516    6.5599 C   0  0  0  0  0  0
   -3.7402   10.7007    6.7904 N   0  0  0  0  0  0
   -2.3536   11.9949    5.3304 C   0  0  0  0  0  0
   -1.4583   11.5614    7.5508 C   0  0  0  0  0  0
   -4.4017   10.0961    5.6059 C   0  0  1  0  0  0
   -4.3662   10.6772    7.9934 C   0  0  0  0  0  0
   -3.2635   11.8792    4.3009 N   0  0  0  0  0  0
   -1.2123   12.7192    4.9842 N   0  0  0  0  0  0
   -0.3947   12.2918    7.1415 N   0  0  0  0  0  0
   -1.4391   11.0323    8.6611 O   0  0  0  0  0  0
   -4.4915   11.1186    4.4460 C   0  0  0  0  0  0
   -3.6607    8.8082    5.1710 C   0  0  0  0  0  0
   -5.4302   10.1032    8.2248 O   0  0  0  0  0  0
   -0.2806   12.8603    5.8703 C   0  0  0  0  0  0
   -3.1625    8.8693    3.8030 N   0  0  0  0  0  0
    0.8996   13.5507    5.6899 N   0  0  0  0  0  0
   -2.2044    8.1135    3.2296 C   0  0  0  0  0  0
   -1.3935    7.3119    4.0580 C   0  0  0  0  0  0
   -1.9915    8.0949    1.8329 C   0  0  0  0  0  0
   -0.3820    6.5037    3.5039 C   0  0  0  0  0  0
   -0.9806    7.2866    1.2779 C   0  0  0  0  0  0
   -0.1596    6.4920    2.1076 C   0  0  0  0  0  0
    0.9022    5.6208    1.4982 C   0  0  0  0  0  0
    1.4454    4.7113    2.3226 N   0  0  0  0  0  0
    1.2657    5.7892    0.3338 O   0  0  0  0  0  0
    2.1759    3.5120    1.9223 C   0  0  2  0  0  0
    1.4517    2.2366    2.4163 C   0  0  0  0  0  0
    3.6546    3.6427    2.3109 C   0  0  0  0  0  0
    2.1117    0.9034    1.9989 C   0  0  0  0  0  0
    4.4996    3.2537    1.4737 O   0  0  0  0  0  0
    1.1974   -0.3155    2.1624 C   0  0  0  0  0  0
    0.0142   -0.2251    1.7652 O   0  0  0  0  0  0
   -5.4334    9.8170    5.8241 H   0  0  0  0  0  0
   -3.8352   11.2669    8.7548 H   0  0  0  0  0  0
   -3.0614   12.2963    3.4035 H   0  0  0  0  0  0
    0.3688   12.3974    7.7924 H   0  0  0  0  0  0
   -4.7384   10.6290    3.5037 H   0  0  0  0  0  0
   -5.2934   11.8294    4.6486 H   0  0  0  0  0  0
   -2.8265    8.6023    5.8423 H   0  0  0  0  0  0
   -4.3235    7.9458    5.2496 H   0  0  0  0  0  0
   -3.5283    9.6264    3.2434 H   0  0  0  0  0  0
    1.6139   13.6470    6.3966 H   0  0  0  0  0  0
    1.1360   14.0166    4.8257 H   0  0  0  0  0  0
   -1.5459    7.3068    5.1276 H   0  0  0  0  0  0
   -2.5962    8.6947    1.1698 H   0  0  0  0  0  0
    0.2152    5.8909    4.1636 H   0  0  0  0  0  0
   -0.8368    7.2851    0.2069 H   0  0  0  0  0  0
    1.3766    4.8658    3.3182 H   0  0  0  0  0  0
    2.1691    3.4723    0.8310 H   0  0  0  0  0  0
    1.3918    2.2662    3.5055 H   0  0  0  0  0  0
    0.4209    2.2585    2.0590 H   0  0  0  0  0  0
    2.4174    0.9624    0.9535 H   0  0  0  0  0  0
    3.0162    0.7259    2.5812 H   0  0  0  0  0  0
    3.9164    4.1170    3.4383 O   0  5  0  0  0  0
    1.7004   -1.3253    2.7019 O   0  5  0  0  0  0
  1  2  1  0  0  0
  1  3  2  0  0  0
  1  4  1  0  0  0
  2  5  1  0  0  0
  2  6  1  0  0  0
  3  7  1  0  0  0
  3  8  1  0  0  0
  4  9  1  0  0  0
  4 10  2  0  0  0
  5 11  1  0  0  0
  5 12  1  0  0  0
  5 33  1  0  0  0
  6 13  2  0  0  0
  6 34  1  0  0  0
  7 11  1  0  0  0
  7 35  1  0  0  0
  8 14  2  0  0  0
  9 14  1  0  0  0
  9 36  1  0  0  0
 11 37  1  0  0  0
 11 38  1  0  0  0
 12 15  1  0  0  0
 12 39  1  0  0  0
 12 40  1  0  0  0
 14 16  1  0  0  0
 15 17  1  0  0  0
 15 41  1  0  0  0
 16 42  1  0  0  0
 16 43  1  0  0  0
 17 18  1  0  0  0
 17 19  2  0  0  0
 18 20  2  0  0  0
 18 44  1  0  0  0
 19 21  1  0  0  0
 19 45  1  0  0  0
 20 22  1  0  0  0
 20 46  1  0  0  0
 21 22  2  0  0  0
 21 47  1  0  0  0
 22 23  1  0  0  0
 23 24  1  0  0  0
 23 25  2  0  0  0
 24 26  1  0  0  0
 24 48  1  0  0  0
 26 27  1  0  0  0
 26 28  1  0  0  0
 26 49  1  0  0  0
 27 29  1  0  0  0
 27 50  1  0  0  0
 27 51  1  0  0  0
 28 30  2  0  0  0
 28 54  1  0  0  0
 29 31  1  0  0  0
 29 52  1  0  0  0
 29 53  1  0  0  0
 31 32  2  0  0  0
 31 55  1  0  0  0
M  CHG  2  54  -1  55  -1
M  END
> <i_ionizer_Ion_state_n>
6

> <i_ionizer_Tot_Q>
-2

> <s_ionizer_Ion_centers>
54_55

> <s_ionizer_Ion_types>
OM_OM

> <s_ionizer_Ion_ctrs_in>
30_33

> <r_ionizer_Ionization_penalty>
0.00305503

> <r_ionizer_Ionization_penalty_charging>
0.00118438

> <r_ionizer_Ionization_penalty_neutral>
0.00187065

> <s_st_Chirality_1>
5_R_2_11_12_33

> <s_st_Chirality_2>
26_R_24_28_27_49

> <i_mmod_Serial_Number-OPLS-2005>
549

> <i_i_glide_lignum>
543

> <r_i_docking_score>
-5.08694

> <r_i_glide_gscore>
-5.08694

> <r_i_glide_lipo>
-0.976507

> <r_i_glide_hbond>
-1.891

> <r_i_glide_metal>
0

> <r_i_glide_eburp>
-0.216416

> <r_i_glide_evdw>
-36.6525

> <r_i_glide_ecoul>
-10.3898

> <r_i_glide_erotb>
0.831501

> <r_i_glide_esite>
1.13666

> <r_i_glide_emodel>
-99.4126

> <r_i_glide_energy>
-47.0423

> <r_i_glide_einternal>
20.884

> <i_i_glide_confnum>
27

> <i_i_glide_posenum>
148

$$$$
C05811
                    3D
 Structure written by MMmdl.
118118  0  0  1  0            999 V2000
    3.1309    1.7344    1.3592 C   0  0  0  0  0  0
    2.2222    1.2531    2.4769 C   0  0  0  0  0  0
    4.0006    2.9204    1.8037 C   0  0  0  0  0  0
    2.2274    0.0483    3.0836 C   0  0  0  0  0  0
    1.2246   -0.2845    4.1714 C   0  0  0  0  0  0
    3.1925   -1.0819    2.7647 C   0  0  0  0  0  0
    0.9257    5.3244    2.4529 C   0  0  0  0  0  0
    1.8812    4.2221    2.0269 C   0  0  0  0  0  0
    0.4253    6.1355    1.2470 C   0  0  0  0  0  0
    3.1834    4.0807    2.3520 C   0  0  0  0  0  0
    3.9554    5.0300    3.2569 C   0  0  0  0  0  0
   -5.6279   10.1661    5.1597 C   0  0  0  0  0  0
   -4.3771    9.4353    4.7003 C   0  0  0  0  0  0
   -3.2375    9.2255    5.3921 C   0  0  0  0  0  0
   -2.0647    8.4935    4.7563 C   0  0  0  0  0  0
   -2.9994    9.6864    6.8229 C   0  0  0  0  0  0
   -2.3940    7.9321    3.3638 C   0  0  0  0  0  0
   -9.2451   12.2946    6.2444 C   0  0  0  0  0  0
   -7.9441   11.7135    5.7160 C   0  0  0  0  0  0
   -7.4065   11.8641    4.4873 C   0  0  0  0  0  0
   -6.0678   11.2292    4.1404 C   0  0  0  0  0  0
   -8.0441   12.6610    3.3582 C   0  0  0  0  0  0
   -7.3743   10.5322    9.7582 C   0  0  0  0  0  0
   -7.8915   11.3795    8.6074 C   0  0  0  0  0  0
   -8.5177   12.5732    8.6718 C   0  0  0  0  0  0
   -8.9977   13.2695    7.4067 C   0  0  0  0  0  0
   -8.8131   13.3241    9.9623 C   0  0  0  0  0  0
   -5.7423    8.3836   13.1374 C   0  0  0  0  0  0
   -6.1231    9.1811   11.9025 C   0  0  0  0  0  0
   -5.2998    9.8633   11.0799 C   0  0  0  0  0  0
   -5.8415   10.5878    9.8566 C   0  0  0  0  0  0
   -3.7951    9.9746   11.2761 C   0  0  0  0  0  0
   -6.9852    5.7455   16.3470 C   0  0  0  0  0  0
   -6.6279    6.8035   15.3198 C   0  0  0  0  0  0
   -6.5418    8.1292   15.5446 C   0  0  0  0  0  0
   -6.1719    9.0950   14.4296 C   0  0  0  0  0  0
   -6.8028    8.7692   16.8996 C   0  0  0  0  0  0
   -1.2684    7.0604    2.8322 C   0  0  0  0  0  0
   -0.7268    7.0663    1.5961 C   0  0  0  0  0  0
   -1.1786    7.9728    0.4601 C   0  0  0  0  0  0
   -5.9521    4.6349   16.4511 C   0  0  0  0  0  0
   -4.6079    4.9189   16.7900 C   0  0  0  0  0  0
   -6.3384    3.3005   16.2020 C   0  0  0  0  0  0
   -3.6649    3.8725   16.8793 C   0  0  0  0  0  0
   -4.2034    6.2010   17.0323 O   0  0  0  0  0  0
   -5.3959    2.2584   16.2916 C   0  0  0  0  0  0
   -4.0599    2.5435   16.6305 C   0  0  0  0  0  0
   -2.3666    4.1452   17.2064 O   0  0  0  0  0  0
    2.4958    2.0376    0.5262 H   0  0  0  0  0  0
    3.7495    0.9257    0.9767 H   0  0  0  0  0  0
    1.4975    1.9854    2.8024 H   0  0  0  0  0  0
    4.7113    2.5834    2.5598 H   0  0  0  0  0  0
    4.5986    3.2799    0.9653 H   0  0  0  0  0  0
    0.6274   -1.1496    3.8822 H   0  0  0  0  0  0
    1.7403   -0.5198    5.1027 H   0  0  0  0  0  0
    0.5450    0.5466    4.3624 H   0  0  0  0  0  0
    2.6612   -1.9023    2.2819 H   0  0  0  0  0  0
    4.0158   -0.7826    2.1198 H   0  0  0  0  0  0
    3.6333   -1.4628    3.6863 H   0  0  0  0  0  0
    0.0790    4.8580    2.9576 H   0  0  0  0  0  0
    1.3870    5.9949    3.1734 H   0  0  0  0  0  0
    1.4346    3.4776    1.3837 H   0  0  0  0  0  0
    1.2405    6.7291    0.8311 H   0  0  0  0  0  0
    0.1146    5.4521    0.4553 H   0  0  0  0  0  0
    3.3144    5.6425    3.8870 H   0  0  0  0  0  0
    4.6028    4.4632    3.9265 H   0  0  0  0  0  0
    4.5834    5.6934    2.6624 H   0  0  0  0  0  0
   -6.4210    9.4283    5.2851 H   0  0  0  0  0  0
   -5.4816   10.6342    6.1298 H   0  0  0  0  0  0
   -4.4376    9.0512    3.6922 H   0  0  0  0  0  0
   -1.7466    7.6789    5.4087 H   0  0  0  0  0  0
   -1.2181    9.1783    4.6930 H   0  0  0  0  0  0
   -3.9175    9.9004    7.3655 H   0  0  0  0  0  0
   -2.4788    8.9096    7.3835 H   0  0  0  0  0  0
   -2.3797   10.5831    6.8340 H   0  0  0  0  0  0
   -2.6162    8.7527    2.6864 H   0  0  0  0  0  0
   -3.2949    7.3202    3.4190 H   0  0  0  0  0  0
   -9.8024   12.8010    5.4604 H   0  0  0  0  0  0
   -9.8681   11.4675    6.5861 H   0  0  0  0  0  0
   -7.4059   11.1142    6.4361 H   0  0  0  0  0  0
   -5.3154   12.0159    4.0719 H   0  0  0  0  0  0
   -6.1245   10.7778    3.1487 H   0  0  0  0  0  0
   -9.1110   12.8236    3.4940 H   0  0  0  0  0  0
   -7.5607   13.6330    3.2605 H   0  0  0  0  0  0
   -7.9268   12.1292    2.4137 H   0  0  0  0  0  0
   -7.8149   10.9133   10.6800 H   0  0  0  0  0  0
   -7.6930    9.4971    9.6652 H   0  0  0  0  0  0
   -7.7250   10.9451    7.6322 H   0  0  0  0  0  0
   -8.2643   14.0174    7.1016 H   0  0  0  0  0  0
   -9.9120   13.8185    7.6357 H   0  0  0  0  0  0
   -8.1979   13.0018   10.7993 H   0  0  0  0  0  0
   -8.6230   14.3890    9.8263 H   0  0  0  0  0  0
   -9.8597   13.2012   10.2411 H   0  0  0  0  0  0
   -6.2380    7.4146   13.0698 H   0  0  0  0  0  0
   -4.6761    8.1680   13.1504 H   0  0  0  0  0  0
   -7.1814    9.1803   11.6847 H   0  0  0  0  0  0
   -5.3929   10.1496    8.9641 H   0  0  0  0  0  0
   -5.5177   11.6295    9.8779 H   0  0  0  0  0  0
   -3.4798    9.7375   12.2905 H   0  0  0  0  0  0
   -3.2717    9.3083   10.5904 H   0  0  0  0  0  0
   -3.4662   10.9943   11.0747 H   0  0  0  0  0  0
   -7.1090    6.2153   17.3235 H   0  0  0  0  0  0
   -7.9532    5.3167   16.0852 H   0  0  0  0  0  0
   -6.4302    6.4317   14.3245 H   0  0  0  0  0  0
   -5.3713    9.7461   14.7828 H   0  0  0  0  0  0
   -7.0215    9.7458   14.2172 H   0  0  0  0  0  0
   -7.1748    8.0577   17.6356 H   0  0  0  0  0  0
   -5.8886    9.2082   17.2984 H   0  0  0  0  0  0
   -7.5464    9.5605   16.8028 H   0  0  0  0  0  0
   -0.8728    6.3633    3.5569 H   0  0  0  0  0  0
   -2.1766    8.3805    0.6044 H   0  0  0  0  0  0
   -0.4846    8.8046    0.3402 H   0  0  0  0  0  0
   -1.2013    7.4146   -0.4762 H   0  0  0  0  0  0
   -7.3608    3.0709   15.9394 H   0  0  0  0  0  0
   -4.9259    6.8073   16.9618 H   0  0  0  0  0  0
   -5.6985    1.2394   16.0997 H   0  0  0  0  0  0
   -3.3419    1.7392   16.6973 H   0  0  0  0  0  0
   -1.8809    3.3777   17.4672 H   0  0  0  0  0  0
  1  3  1  0  0  0
  1  2  1  0  0  0
  1 49  1  0  0  0
  1 50  1  0  0  0
  2  4  2  0  0  0
  2 51  1  0  0  0
  3 10  1  0  0  0
  3 52  1  0  0  0
  3 53  1  0  0  0
  4  5  1  0  0  0
  4  6  1  0  0  0
  5 54  1  0  0  0
  5 55  1  0  0  0
  5 56  1  0  0  0
  6 57  1  0  0  0
  6 58  1  0  0  0
  6 59  1  0  0  0
  7  9  1  0  0  0
  7  8  1  0  0  0
  7 60  1  0  0  0
  7 61  1  0  0  0
  8 10  2  0  0  0
  8 62  1  0  0  0
  9 39  1  0  0  0
  9 63  1  0  0  0
  9 64  1  0  0  0
 10 11  1  0  0  0
 11 65  1  0  0  0
 11 66  1  0  0  0
 11 67  1  0  0  0
 12 21  1  0  0  0
 12 13  1  0  0  0
 12 68  1  0  0  0
 12 69  1  0  0  0
 13 14  2  0  0  0
 13 70  1  0  0  0
 14 15  1  0  0  0
 14 16  1  0  0  0
 15 17  1  0  0  0
 15 71  1  0  0  0
 15 72  1  0  0  0
 16 73  1  0  0  0
 16 74  1  0  0  0
 16 75  1  0  0  0
 17 38  1  0  0  0
 17 76  1  0  0  0
 17 77  1  0  0  0
 18 19  1  0  0  0
 18 26  1  0  0  0
 18 78  1  0  0  0
 18 79  1  0  0  0
 19 20  2  0  0  0
 19 80  1  0  0  0
 20 21  1  0  0  0
 20 22  1  0  0  0
 21 81  1  0  0  0
 21 82  1  0  0  0
 22 83  1  0  0  0
 22 84  1  0  0  0
 22 85  1  0  0  0
 23 31  1  0  0  0
 23 24  1  0  0  0
 23 86  1  0  0  0
 23 87  1  0  0  0
 24 25  2  0  0  0
 24 88  1  0  0  0
 25 26  1  0  0  0
 25 27  1  0  0  0
 26 89  1  0  0  0
 26 90  1  0  0  0
 27 91  1  0  0  0
 27 92  1  0  0  0
 27 93  1  0  0  0
 28 29  1  0  0  0
 28 36  1  0  0  0
 28 94  1  0  0  0
 28 95  1  0  0  0
 29 30  2  0  0  0
 29 96  1  0  0  0
 30 31  1  0  0  0
 30 32  1  0  0  0
 31 97  1  0  0  0
 31 98  1  0  0  0
 32 99  1  0  0  0
 32100  1  0  0  0
 32101  1  0  0  0
 33 34  1  0  0  0
 33 41  1  0  0  0
 33102  1  0  0  0
 33103  1  0  0  0
 34 35  2  0  0  0
 34104  1  0  0  0
 35 36  1  0  0  0
 35 37  1  0  0  0
 36105  1  0  0  0
 36106  1  0  0  0
 37107  1  0  0  0
 37108  1  0  0  0
 37109  1  0  0  0
 38 39  2  0  0  0
 38110  1  0  0  0
 39 40  1  0  0  0
 40111  1  0  0  0
 40112  1  0  0  0
 40113  1  0  0  0
 41 42  2  0  0  0
 41 43  1  0  0  0
 42 44  1  0  0  0
 42 45  1  0  0  0
 43 46  2  0  0  0
 43114  1  0  0  0
 44 47  2  0  0  0
 44 48  1  0  0  0
 45115  1  0  0  0
 46 47  1  0  0  0
 46116  1  0  0  0
 47117  1  0  0  0
 48118  1  0  0  0
M  END
> <i_ionizer_Ion_state_n>
0

> <i_ionizer_Tot_Q>
0

> <s_ionizer_Ion_centers>


> <s_ionizer_Ion_types>


> <s_ionizer_Ion_ctrs_in>


> <r_ionizer_Ionization_penalty>
0.00118438

> <r_ionizer_Ionization_penalty_charging>
0

> <r_ionizer_Ionization_penalty_neutral>
0.00118438

> <s_st_EZ_1>
7_8_10_3_E

> <s_st_EZ_2>
12_13_14_15_E

> <s_st_EZ_3>
18_19_20_21_E

> <s_st_EZ_4>
23_24_25_26_E

> <s_st_EZ_5>
28_29_30_31_E

> <s_st_EZ_6>
33_34_35_36_E

> <s_st_EZ_7>
17_38_39_9_E

> <i_mmod_Serial_Number-OPLS-2005>
797

> <i_i_glide_lignum>
788

> <r_i_docking_score>
-5.0864

> <r_i_glide_gscore>
-5.0864

> <r_i_glide_lipo>
-2.09844

> <r_i_glide_hbond>
-0.5

> <r_i_glide_metal>
0

> <r_i_glide_eburp>
0

> <r_i_glide_evdw>
-38.0743

> <r_i_glide_ecoul>
-7.28786

> <r_i_glide_erotb>
1.12644

> <r_i_glide_esite>
0.160336

> <r_i_glide_emodel>
-69.8312

> <r_i_glide_energy>
-45.3622

> <r_i_glide_einternal>
9.29372

> <i_i_glide_confnum>
1072

> <i_i_glide_posenum>
138

$$$$
C00842
                    3D
 Structure written by MMmdl.
 60 62  0  0  1  0            999 V2000
   -2.1666    9.8978    6.2785 C   0  0  2  0  0  0
   -1.4646   11.2121    6.0118 N   0  0  0  0  0  0
   -1.8172    8.9754    5.2871 O   0  0  0  0  0  0
   -3.6836   10.0835    6.2282 C   0  0  0  0  0  0
   -0.5695   11.7159    6.9767 C   0  0  0  0  0  0
   -1.7104   11.9533    4.8637 C   0  0  0  0  0  0
   -2.9739    8.5654    4.5557 C   0  0  1  0  0  0
   -4.0009    9.6762    4.8044 C   0  0  1  0  0  0
    0.0381   12.9387    6.6993 N   0  0  0  0  0  0
   -0.3212   11.1310    8.0301 O   0  0  0  0  0  0
   -1.1251   13.1474    4.5954 C   0  0  0  0  0  0
   -2.6002    8.3387    3.0837 C   0  0  0  0  0  0
   -5.3325    9.2173    4.6989 O   0  0  0  0  0  0
   -0.1730   13.7111    5.5551 C   0  0  0  0  0  0
   -1.4289   13.9338    3.3319 C   0  0  0  0  0  0
   -1.5489    7.4021    2.9871 O   0  0  0  0  0  0
    0.4262   14.7771    5.4244 O   0  0  0  0  0  0
   -1.4891    6.2864    1.7088 P   0  0  0  0  0  0
   -0.0089    5.4771    1.9279 O   0  0  0  0  0  0
   -2.5842    5.3086    1.8997 O   0  0  0  0  0  0
    0.6822    4.4544    3.1005 P   0  0  0  0  0  0
    1.9076    3.5807    2.2892 O   0  0  0  0  0  0
    1.3003    5.3002    4.1458 O   0  0  0  0  0  0
    3.0780    3.1048    2.9412 C   0  0  1  0  0  0
    2.7893    2.0265    3.8249 O   0  0  0  0  0  0
    4.1242    2.5821    1.9388 C   0  0  1  0  0  0
    2.1231    0.9235    3.2096 C   0  0  1  0  0  0
    3.5618    1.3929    1.1416 C   0  0  2  0  0  0
    4.5835    3.6248    1.1040 O   0  0  0  0  0  0
    3.0372    0.3142    2.1135 C   0  0  2  0  0  0
    1.7894   -0.0534    4.3543 C   0  0  0  0  0  0
    4.6039    0.8295    0.3648 O   0  0  0  0  0  0
    2.3056   -0.6349    1.3607 O   0  0  0  0  0  0
    0.9240   -1.0859    3.9283 O   0  0  0  0  0  0
   -1.8034    9.5404    7.2429 H   0  0  0  0  0  0
   -4.1341    9.3923    6.9421 H   0  0  0  0  0  0
   -3.9874   11.1003    6.4803 H   0  0  0  0  0  0
   -2.4094   11.5713    4.1388 H   0  0  0  0  0  0
   -3.3343    7.6344    4.9967 H   0  0  0  0  0  0
   -3.8467   10.5187    4.1326 H   0  0  0  0  0  0
    0.6815   13.3006    7.3870 H   0  0  0  0  0  0
   -3.4528    7.9626    2.5204 H   0  0  0  0  0  0
   -2.3021    9.2785    2.6183 H   0  0  0  0  0  0
   -5.5503    9.1692    3.7780 H   0  0  0  0  0  0
   -2.1403   13.4086    2.6934 H   0  0  0  0  0  0
   -1.8588   14.9038    3.5831 H   0  0  0  0  0  0
   -0.5177   14.0990    2.7566 H   0  0  0  0  0  0
    3.5172    3.8947    3.5505 H   0  0  0  0  0  0
    4.9899    2.2455    2.5114 H   0  0  0  0  0  0
    1.1909    1.2834    2.7701 H   0  0  0  0  0  0
    2.7574    1.7320    0.4886 H   0  0  0  0  0  0
    3.8688    3.8794    0.5317 H   0  0  0  0  0  0
    3.8803   -0.1857    2.5931 H   0  0  0  0  0  0
    2.6956   -0.4791    4.7860 H   0  0  0  0  0  0
    1.2782    0.4813    5.1556 H   0  0  0  0  0  0
    4.2300    0.1731   -0.2023 H   0  0  0  0  0  0
    2.8695   -0.9780    0.6852 H   0  0  0  0  0  0
    0.7813   -1.6773    4.6510 H   0  0  0  0  0  0
   -1.4165    7.0616    0.4512 O   0  5  0  0  0  0
   -0.3557    3.4772    3.4991 O   0  5  0  0  0  0
  1  2  1  0  0  0
  1  3  1  0  0  0
  1  4  1  0  0  0
  1 35  1  0  0  0
  2  5  1  0  0  0
  2  6  1  0  0  0
  3  7  1  0  0  0
  4  8  1  0  0  0
  4 36  1  0  0  0
  4 37  1  0  0  0
  5  9  1  0  0  0
  5 10  2  0  0  0
  6 11  2  0  0  0
  6 38  1  0  0  0
  7 12  1  0  0  0
  7  8  1  0  0  0
  7 39  1  0  0  0
  8 13  1  0  0  0
  8 40  1  0  0  0
  9 14  1  0  0  0
  9 41  1  0  0  0
 11 15  1  0  0  0
 11 14  1  0  0  0
 12 16  1  0  0  0
 12 42  1  0  0  0
 12 43  1  0  0  0
 13 44  1  0  0  0
 14 17  2  0  0  0
 15 45  1  0  0  0
 15 46  1  0  0  0
 15 47  1  0  0  0
 16 18  1  0  0  0
 18 19  1  0  0  0
 18 20  2  0  0  0
 18 59  1  0  0  0
 19 21  1  0  0  0
 21 22  1  0  0  0
 21 23  2  0  0  0
 21 60  1  0  0  0
 22 24  1  0  0  0
 24 25  1  0  0  0
 24 26  1  0  0  0
 24 48  1  0  0  0
 25 27  1  0  0  0
 26 28  1  0  0  0
 26 29  1  0  0  0
 26 49  1  0  0  0
 27 30  1  0  0  0
 27 31  1  0  0  0
 27 50  1  0  0  0
 28 32  1  0  0  0
 28 30  1  0  0  0
 28 51  1  0  0  0
 29 52  1  0  0  0
 30 33  1  0  0  0
 30 53  1  0  0  0
 31 34  1  0  0  0
 31 54  1  0  0  0
 31 55  1  0  0  0
 32 56  1  0  0  0
 33 57  1  0  0  0
 34 58  1  0  0  0
M  CHG  2  59  -1  60  -1
M  END
> <i_ionizer_Ion_state_n>
3

> <i_ionizer_Tot_Q>
-2

> <s_ionizer_Ion_centers>
59_60

> <s_ionizer_Ion_types>
OM_OM

> <s_ionizer_Ion_ctrs_in>
20_24

> <r_ionizer_Ionization_penalty>
1.49178e-05

> <r_ionizer_Ionization_penalty_charging>
1.49178e-05

> <r_ionizer_Ionization_penalty_neutral>
0

> <s_st_Chirality_1>
1_R_3_2_4_35

> <s_st_Chirality_2>
7_R_3_8_12_39

> <s_st_Chirality_3>
8_S_13_7_4_40

> <s_st_Chirality_4>
26_R_29_24_28_49

> <s_st_Chirality_5>
27_R_25_30_31_50

> <s_st_Chirality_6>
28_S_32_26_30_51

> <s_st_Chirality_7>
30_R_33_28_27_53

> <s_st_Chirality_8>
24_R_22_25_26_48

> <i_mmod_Serial_Number-OPLS-2005>
345

> <i_i_glide_lignum>
342

> <r_i_docking_score>
-5.08587

> <r_i_glide_gscore>
-5.08587

> <r_i_glide_lipo>
-0.776386

> <r_i_glide_hbond>
-1.42122

> <r_i_glide_metal>
0

> <r_i_glide_eburp>
-8.64109e-17

> <r_i_glide_evdw>
-37.5287

> <r_i_glide_ecoul>
-13.5826

> <r_i_glide_erotb>
0.582918

> <r_i_glide_esite>
0.88937

> <r_i_glide_emodel>
-96.5718

> <r_i_glide_energy>
-51.1113

> <r_i_glide_einternal>
5.12541

> <i_i_glide_confnum>
23

> <i_i_glide_posenum>
71

$$$$
C00152
                    3D
 Structure written by MMmdl.
 17 16  0  0  1  0            999 V2000
    2.5693    0.1415    3.8484 C   0  0  1  0  0  0
    3.0837   -0.7152    2.6582 C   0  0  0  0  0  0
    1.1742    0.7412    3.6054 C   0  0  0  0  0  0
    3.1372    0.0266    1.3162 C   0  0  0  0  0  0
    0.8024    1.7136    4.2998 O   0  0  0  0  0  0
    3.7162   -0.6151    0.3000 N   0  0  0  0  0  0
    2.6720    1.1577    1.1896 O   0  0  0  0  0  0
    3.2635    0.9680    4.0110 H   0  0  0  0  0  0
    4.0841   -1.0967    2.8689 H   0  0  0  0  0  0
    2.4389   -1.5870    2.5329 H   0  0  0  0  0  0
    2.1871   -0.0302    5.8429 H   0  0  0  0  0  0
    1.8418   -1.3936    4.9824 H   0  0  0  0  0  0
    3.7751   -0.1670   -0.6029 H   0  0  0  0  0  0
    4.0902   -1.5435    0.4331 H   0  0  0  0  0  0
    2.5000   -0.6369    5.0984 N   0  3  0  0  0  0
    3.4155   -1.0059    5.3145 H   0  0  0  0  0  0
    0.5035    0.2253    2.6843 O   0  5  0  0  0  0
  1  2  1  0  0  0
  1  3  1  0  0  0
  1  8  1  0  0  0
  1 15  1  0  0  0
  2  4  1  0  0  0
  2  9  1  0  0  0
  2 10  1  0  0  0
  3  5  2  0  0  0
  3 17  1  0  0  0
  4  6  1  0  0  0
  4  7  2  0  0  0
  6 13  1  0  0  0
  6 14  1  0  0  0
 11 15  1  0  0  0
 12 15  1  0  0  0
 15 16  1  0  0  0
M  CHG  2  15   1  17  -1
M  END
> <i_ionizer_Ion_state_n>
3

> <i_ionizer_Tot_Q>
0

> <s_ionizer_Ion_centers>
15_17

> <s_ionizer_Ion_types>
N5_OM

> <s_ionizer_Ion_ctrs_in>
4_6

> <r_ionizer_Ionization_penalty>
0.000779521

> <r_ionizer_Ionization_penalty_charging>
0.000779521

> <r_ionizer_Ionization_penalty_neutral>
0

> <s_st_Chirality_1>
1_S_15_3_2_8

> <i_mmod_Serial_Number-OPLS-2005>
110

> <i_i_glide_lignum>
108

> <r_i_docking_score>
-5.07038

> <r_i_glide_gscore>
-5.07038

> <r_i_glide_lipo>
-0.167425

> <r_i_glide_hbond>
-1.25562

> <r_i_glide_metal>
0

> <r_i_glide_eburp>
-2.5

> <r_i_glide_evdw>
-11.2431

> <r_i_glide_ecoul>
-7.68333

> <r_i_glide_erotb>
0.913013

> <r_i_glide_esite>
-0.392567

> <r_i_glide_emodel>
-39.3146

> <r_i_glide_energy>
-18.9265

> <r_i_glide_einternal>
0.438684

> <i_i_glide_confnum>
1

> <i_i_glide_posenum>
625

$$$$
C00118
                    3D
 Structure written by MMmdl.
 15 14  0  0  1  0            999 V2000
    0.8950    2.4326    2.9803 P   0  0  0  0  0  0
    2.0409    1.6829    4.1402 O   0  0  0  0  0  0
    0.2157    1.1927    2.3581 O   0  0  0  0  0  0
    2.9936    0.7619    3.6233 C   0  0  0  0  0  0
    4.2637    0.6375    4.4976 C   0  0  2  0  0  0
    4.9997    1.9664    4.6997 C   0  0  0  0  0  0
    5.1466   -0.2934    3.8998 O   0  0  0  0  0  0
    4.5098    3.0281    4.3135 O   0  0  0  0  0  0
    3.9954    0.2354    5.4749 H   0  0  0  0  0  0
    2.4791   -0.1988    3.5827 H   0  0  0  0  0  0
    3.2338    1.0010    2.5865 H   0  0  0  0  0  0
    5.9664    1.9085    5.1981 H   0  0  0  0  0  0
    5.1333   -1.0813    4.4218 H   0  0  0  0  0  0
    0.0093    3.3020    3.9006 O   0  5  0  0  0  0
    1.8596    3.2044    2.0540 O   0  5  0  0  0  0
  1  2  1  0  0  0
  1  3  2  0  0  0
  1 14  1  0  0  0
  1 15  1  0  0  0
  2  4  1  0  0  0
  4  5  1  0  0  0
  4 10  1  0  0  0
  4 11  1  0  0  0
  5  6  1  0  0  0
  5  7  1  0  0  0
  5  9  1  0  0  0
  6  8  2  0  0  0
  6 12  1  0  0  0
  7 13  1  0  0  0
M  CHG  2  14  -1  15  -1
M  END
> <i_ionizer_Ion_state_n>
3

> <i_ionizer_Tot_Q>
-2

> <s_ionizer_Ion_centers>
14_15

> <s_ionizer_Ion_types>
OM_OM

> <s_ionizer_Ion_ctrs_in>
3_4

> <r_ionizer_Ionization_penalty>
1.49178e-05

> <r_ionizer_Ionization_penalty_charging>
1.49178e-05

> <r_ionizer_Ionization_penalty_neutral>
0

> <s_st_Chirality_1>
5_R_7_6_4_9

> <i_mmod_Serial_Number-OPLS-2005>
84

> <i_i_glide_lignum>
83

> <r_i_docking_score>
-5.06601

> <r_i_glide_gscore>
-5.06601

> <r_i_glide_lipo>
-0.201462

> <r_i_glide_hbond>
-1.15

> <r_i_glide_metal>
0

> <r_i_glide_eburp>
-2.5

> <r_i_glide_evdw>
-13.6457

> <r_i_glide_ecoul>
-9.30056

> <r_i_glide_erotb>
1.24326

> <r_i_glide_esite>
-0.436092

> <r_i_glide_emodel>
-49.3964

> <r_i_glide_energy>
-22.9463

> <r_i_glide_einternal>
2.84987

> <i_i_glide_confnum>
1

> <i_i_glide_posenum>
475

$$$$
C00363
                    3D
 Structure written by MMmdl.
 38 39  0  0  1  0            999 V2000
    5.1734   -0.1190    3.6539 C   0  0  2  0  0  0
    5.6034   -0.2948    2.2113 N   0  0  0  0  0  0
    4.1528    0.8730    3.7326 O   0  0  0  0  0  0
    6.3278    0.4228    4.4885 C   0  0  0  0  0  0
    4.6170   -0.4901    1.2231 C   0  0  0  0  0  0
    6.9424   -0.3212    1.8438 C   0  0  0  0  0  0
    4.3874    1.7686    4.8041 C   0  0  1  0  0  0
    5.6386    1.2647    5.5393 C   0  0  1  0  0  0
    5.0582   -0.6733   -0.0854 N   0  0  0  0  0  0
    3.4128   -0.5118    1.4744 O   0  0  0  0  0  0
    7.3748   -0.5059    0.5709 C   0  0  0  0  0  0
    4.5638    3.2038    4.2865 C   0  0  0  0  0  0
    5.2997    0.5001    6.6781 O   0  0  0  0  0  0
    6.3918   -0.6936   -0.4990 C   0  0  0  0  0  0
    8.8515   -0.5417    0.2114 C   0  0  0  0  0  0
    3.3292    3.6998    3.8127 O   0  0  0  0  0  0
    6.6541   -0.8626   -1.6887 O   0  0  0  0  0  0
    2.2917    2.7131    2.8976 P   0  0  0  0  0  0
    1.1545    3.8091    2.2611 O   0  0  0  0  0  0
    3.0762    2.1548    1.7718 O   0  0  0  0  0  0
   -0.1533    4.9754    2.6165 P   0  0  0  0  0  0
    0.3631    5.6867    3.8872 O   0  0  0  0  0  0
    4.8459   -1.0993    4.0043 H   0  0  0  0  0  0
    6.8416   -0.4086    4.9741 H   0  0  0  0  0  0
    7.0514    0.9870    3.8985 H   0  0  0  0  0  0
    7.6927   -0.1980    2.6064 H   0  0  0  0  0  0
    3.5458    1.7257    5.4984 H   0  0  0  0  0  0
    6.2711    2.1012    5.8329 H   0  0  0  0  0  0
    4.3541   -0.8101   -0.7948 H   0  0  0  0  0  0
    4.9210    3.8613    5.0779 H   0  0  0  0  0  0
    5.3064    3.2354    3.4888 H   0  0  0  0  0  0
    5.0514   -0.3631    6.3769 H   0  0  0  0  0  0
    9.4848   -0.3441    1.0774 H   0  0  0  0  0  0
    9.1230   -1.5230   -0.1787 H   0  0  0  0  0  0
    9.0815    0.2072   -0.5469 H   0  0  0  0  0  0
    1.6066    1.7916    3.8317 O   0  5  0  0  0  0
   -0.1927    5.8324    1.3317 O   0  5  0  0  0  0
   -1.3663    4.0390    2.8202 O   0  5  0  0  0  0
  1  2  1  0  0  0
  1  3  1  0  0  0
  1  4  1  0  0  0
  1 23  1  0  0  0
  2  5  1  0  0  0
  2  6  1  0  0  0
  3  7  1  0  0  0
  4  8  1  0  0  0
  4 24  1  0  0  0
  4 25  1  0  0  0
  5  9  1  0  0  0
  5 10  2  0  0  0
  6 11  2  0  0  0
  6 26  1  0  0  0
  7 12  1  0  0  0
  7  8  1  0  0  0
  7 27  1  0  0  0
  8 13  1  0  0  0
  8 28  1  0  0  0
  9 14  1  0  0  0
  9 29  1  0  0  0
 11 15  1  0  0  0
 11 14  1  0  0  0
 12 16  1  0  0  0
 12 30  1  0  0  0
 12 31  1  0  0  0
 13 32  1  0  0  0
 14 17  2  0  0  0
 15 33  1  0  0  0
 15 34  1  0  0  0
 15 35  1  0  0  0
 16 18  1  0  0  0
 18 19  1  0  0  0
 18 20  2  0  0  0
 18 36  1  0  0  0
 19 21  1  0  0  0
 21 22  2  0  0  0
 21 37  1  0  0  0
 21 38  1  0  0  0
M  CHG  3  36  -1  37  -1  38  -1
M  END
> <i_ionizer_Ion_state_n>
7

> <i_ionizer_Tot_Q>
-3

> <s_ionizer_Ion_centers>
36_37_38

> <s_ionizer_Ion_types>
OM_OM_OM

> <s_ionizer_Ion_ctrs_in>
20_23_24

> <r_ionizer_Ionization_penalty>
2.23767e-05

> <r_ionizer_Ionization_penalty_charging>
2.23767e-05

> <r_ionizer_Ionization_penalty_neutral>
0

> <s_st_Chirality_1>
1_R_3_2_4_23

> <s_st_Chirality_2>
7_R_3_8_12_27

> <s_st_Chirality_3>
8_S_13_7_4_28

> <i_mmod_Serial_Number-OPLS-2005>
210

> <i_i_glide_lignum>
208

> <r_i_docking_score>
-5.06386

> <r_i_glide_gscore>
-5.06386

> <r_i_glide_lipo>
-0.960246

> <r_i_glide_hbond>
-2.01418

> <r_i_glide_metal>
0

> <r_i_glide_eburp>
-0.749691

> <r_i_glide_evdw>
3.37095

> <r_i_glide_ecoul>
-13.5116

> <r_i_glide_erotb>
0.702623

> <r_i_glide_esite>
-0.960888

> <r_i_glide_emodel>
-52.4344

> <r_i_glide_energy>
-10.1406

> <r_i_glide_einternal>
8.17478

> <i_i_glide_confnum>
310

> <i_i_glide_posenum>
1

$$$$
C00407
                    3D
 Structure written by MMmdl.
 22 21  0  0  1  0            999 V2000
    2.5658    0.5459    4.1323 C   0  0  1  0  0  0
    3.5820    0.4220    2.9580 C   0  0  2  0  0  0
    1.1483    0.9530    3.6818 C   0  0  0  0  0  0
    3.1942   -0.7064    1.9735 C   0  0  0  0  0  0
    5.0488    0.2815    3.4223 C   0  0  0  0  0  0
    0.6657    0.3364    2.7071 O   0  0  0  0  0  0
    4.0365   -0.7362    0.6903 C   0  0  0  0  0  0
    2.9307    1.3071    4.8241 H   0  0  0  0  0  0
    3.5150    1.3578    2.4008 H   0  0  0  0  0  0
    1.8800   -0.5591    5.7053 H   0  0  0  0  0  0
    2.1293   -1.4333    4.3337 H   0  0  0  0  0  0
    3.2567   -1.6764    2.4683 H   0  0  0  0  0  0
    2.1498   -0.5855    1.6836 H   0  0  0  0  0  0
    5.7409    0.3698    2.5855 H   0  0  0  0  0  0
    5.3210    1.0568    4.1381 H   0  0  0  0  0  0
    5.2319   -0.6842    3.8946 H   0  0  0  0  0  0
    3.6697   -1.5040    0.0087 H   0  0  0  0  0  0
    3.9930    0.2186    0.1659 H   0  0  0  0  0  0
    5.0824   -0.9605    0.8983 H   0  0  0  0  0  0
    2.4996   -0.6994    4.9206 N   0  3  0  0  0  0
    3.4209   -0.9497    5.2484 H   0  0  0  0  0  0
    0.5721    1.8776    4.2997 O   0  5  0  0  0  0
  1  2  1  0  0  0
  1  3  1  0  0  0
  1  8  1  0  0  0
  1 20  1  0  0  0
  2  4  1  0  0  0
  2  5  1  0  0  0
  2  9  1  0  0  0
  3  6  2  0  0  0
  3 22  1  0  0  0
  4  7  1  0  0  0
  4 12  1  0  0  0
  4 13  1  0  0  0
  5 14  1  0  0  0
  5 15  1  0  0  0
  5 16  1  0  0  0
  7 17  1  0  0  0
  7 18  1  0  0  0
  7 19  1  0  0  0
 10 20  1  0  0  0
 11 20  1  0  0  0
 20 21  1  0  0  0
M  CHG  2  20   1  22  -1
M  END
> <i_ionizer_Ion_state_n>
3

> <i_ionizer_Tot_Q>
0

> <s_ionizer_Ion_centers>
20_22

> <s_ionizer_Ion_types>
N5_OM

> <s_ionizer_Ion_ctrs_in>
4_7

> <r_ionizer_Ionization_penalty>
0.000779521

> <r_ionizer_Ionization_penalty_charging>
0.000779521

> <r_ionizer_Ionization_penalty_neutral>
0

> <s_st_Chirality_1>
1_S_20_3_2_8

> <s_st_Chirality_2>
2_S_1_4_5_9

> <i_mmod_Serial_Number-OPLS-2005>
226

> <i_i_glide_lignum>
224

> <r_i_docking_score>
-5.06347

> <r_i_glide_gscore>
-5.06347

> <r_i_glide_lipo>
-0.430917

> <r_i_glide_hbond>
-1

> <r_i_glide_metal>
0

> <r_i_glide_eburp>
-2.5

> <r_i_glide_evdw>
-11.4469

> <r_i_glide_ecoul>
-5.26712

> <r_i_glide_erotb>
0.923338

> <r_i_glide_esite>
-0.613435

> <r_i_glide_emodel>
-32.9603

> <r_i_glide_energy>
-16.714

> <r_i_glide_einternal>
3.98944

> <i_i_glide_confnum>
3

> <i_i_glide_posenum>
130

$$$$
C00430
                    3D
 Structure written by MMmdl.
 18 17  0  0  1  0            999 V2000
    1.3045    0.2205    3.4605 C   0  0  0  0  0  0
    1.0239    1.6937    3.7665 C   0  0  0  0  0  0
    2.1890   -0.5241    4.4653 C   0  0  0  0  0  0
    0.8454   -0.3373    2.4621 O   0  0  0  0  0  0
    0.2341    2.4173    2.6529 C   0  0  0  0  0  0
   -0.3601    3.7527    3.1157 C   0  0  0  0  0  0
   -1.4940    4.0806    2.7000 O   0  0  0  0  0  0
    0.4746    1.7439    4.7077 H   0  0  0  0  0  0
    1.9803    2.1921    3.9311 H   0  0  0  0  0  0
    2.2493    0.0418    5.3954 H   0  0  0  0  0  0
    1.7543   -1.4985    4.6898 H   0  0  0  0  0  0
    0.8808    2.6123    1.7963 H   0  0  0  0  0  0
   -0.5826    1.7872    2.2980 H   0  0  0  0  0  0
    4.1289   -1.1896    4.5571 H   0  0  0  0  0  0
    3.4731   -1.2262    3.0403 H   0  0  0  0  0  0
    3.5400   -0.6992    3.8996 N   0  3  0  0  0  0
    3.9343    0.2088    3.6977 H   0  0  0  0  0  0
    0.3461    4.4321    3.8915 O   0  5  0  0  0  0
  1  2  1  0  0  0
  1  3  1  0  0  0
  1  4  2  0  0  0
  2  5  1  0  0  0
  2  8  1  0  0  0
  2  9  1  0  0  0
  3 10  1  0  0  0
  3 11  1  0  0  0
  3 16  1  0  0  0
  5  6  1  0  0  0
  5 12  1  0  0  0
  5 13  1  0  0  0
  6  7  2  0  0  0
  6 18  1  0  0  0
 14 16  1  0  0  0
 15 16  1  0  0  0
 16 17  1  0  0  0
M  CHG  2  16   1  18  -1
M  END
> <i_ionizer_Ion_state_n>
3

> <i_ionizer_Tot_Q>
0

> <s_ionizer_Ion_centers>
16_18

> <s_ionizer_Ion_types>
N5_OM

> <s_ionizer_Ion_ctrs_in>
6_8

> <r_ionizer_Ionization_penalty>
0.000779521

> <r_ionizer_Ionization_penalty_charging>
0.000779521

> <r_ionizer_Ionization_penalty_neutral>
0

> <i_mmod_Serial_Number-OPLS-2005>
234

> <i_i_glide_lignum>
232

> <r_i_docking_score>
-5.06315

> <r_i_glide_gscore>
-5.06315

> <r_i_glide_lipo>
-0.257922

> <r_i_glide_hbond>
-1.79601

> <r_i_glide_metal>
0

> <r_i_glide_eburp>
-2.9

> <r_i_glide_evdw>
-11.9624

> <r_i_glide_ecoul>
-9.7184

> <r_i_glide_erotb>
1.84764

> <r_i_glide_esite>
-0.0280279

> <r_i_glide_emodel>
-50.004

> <r_i_glide_energy>
-21.6808

> <r_i_glide_einternal>
3.18536

> <i_i_glide_confnum>
2

> <i_i_glide_posenum>
2

$$$$
C00036
                    3D
 Structure written by MMmdl.
 11 10  0  0  1  0            999 V2000
    1.0954    1.8261    3.4959 C   0  0  0  0  0  0
    1.7459    1.0835    2.3135 C   0  0  0  0  0  0
    0.6457    3.2762    3.2175 C   0  0  0  0  0  0
    0.9139    1.2978    4.5967 O   0  0  0  0  0  0
    1.1401   -0.3026    2.0825 C   0  0  0  0  0  0
   -0.3144    3.7003    3.8998 O   0  0  0  0  0  0
    0.0956   -0.3636    1.3968 O   0  0  0  0  0  0
    1.6318    1.6823    1.4098 H   0  0  0  0  0  0
    2.8150    0.9777    2.4986 H   0  0  0  0  0  0
    1.2874    3.8916    2.3363 O   0  5  0  0  0  0
    1.7137   -1.2739    2.6233 O   0  5  0  0  0  0
  1  2  1  0  0  0
  1  3  1  0  0  0
  1  4  2  0  0  0
  2  5  1  0  0  0
  2  8  1  0  0  0
  2  9  1  0  0  0
  3  6  2  0  0  0
  3 10  1  0  0  0
  5  7  2  0  0  0
  5 11  1  0  0  0
M  CHG  2  10  -1  11  -1
M  END
> <i_ionizer_Ion_state_n>
3

> <i_ionizer_Tot_Q>
-2

> <s_ionizer_Ion_centers>
10_11

> <s_ionizer_Ion_types>
OM_OM

> <s_ionizer_Ion_ctrs_in>
6_8

> <r_ionizer_Ionization_penalty>
0.00118438

> <r_ionizer_Ionization_penalty_charging>
0.00118438

> <r_ionizer_Ionization_penalty_neutral>
0

> <i_mmod_Serial_Number-OPLS-2005>
26

> <i_i_glide_lignum>
26

> <r_i_docking_score>
-5.06203

> <r_i_glide_gscore>
-5.06203

> <r_i_glide_lipo>
-0.0909444

> <r_i_glide_hbond>
-1.12965

> <r_i_glide_metal>
0

> <r_i_glide_eburp>
-2.5

> <r_i_glide_evdw>
-11.8412

> <r_i_glide_ecoul>
-8.48354

> <r_i_glide_erotb>
0.935806

> <r_i_glide_esite>
-0.481596

> <r_i_glide_emodel>
-48.9815

> <r_i_glide_energy>
-20.3247

> <r_i_glide_einternal>
1.35315

> <i_i_glide_confnum>
1

> <i_i_glide_posenum>
175

$$$$
C09819
                    3D
 Structure written by MMmdl.
104107  0  0  1  0            999 V2000
   -9.9440    9.0926   12.7437 N   0  0  0  0  0  0
  -10.0653    8.5724   11.3384 C   0  0  1  0  0  0
   -8.8420    8.9121   13.5507 C   0  0  0  0  0  0
  -10.8165    9.8506   13.5049 C   0  0  0  0  0  0
  -11.4990    8.1634   10.9893 C   0  0  1  0  0  0
   -9.7184    9.6006   10.4608 O   0  0  0  0  0  0
   -9.1346    9.5795   14.7703 C   0  0  0  0  0  0
   -7.6900    8.2366   13.2654 N   0  0  0  0  0  0
  -10.3944   10.1547   14.7033 N   0  0  0  0  0  0
  -12.0721    9.4530   10.3925 C   0  0  1  0  0  0
  -11.5005    7.0606   10.1099 O   0  0  0  0  0  0
  -10.8621   10.3649   10.0829 C   0  0  1  0  0  0
   -8.1233    9.5246   15.7614 C   0  0  0  0  0  0
   -6.8338    8.2704   14.2905 C   0  0  0  0  0  0
  -13.0481    9.2403    9.3684 O   0  0  0  0  0  0
  -10.8377   11.7065   10.8398 C   0  0  0  0  0  0
   -6.9797    8.8558   15.4842 N   0  0  0  0  0  0
   -8.2457   10.1061   16.9618 N   0  0  0  0  0  0
  -14.5829    8.3599    9.7229 P   0  0  0  0  0  0
   -9.5954   12.3649   10.7008 O   0  0  0  0  0  0
  -15.4198    9.3877   10.5196 O   0  0  0  0  0  0
   -9.2853   13.8056   11.5512 P   0  0  0  0  0  0
  -10.1539   14.9695   10.6641 O   0  0  0  0  0  0
   -9.9151   13.6898   12.8872 O   0  0  0  0  0  0
  -10.1326   15.5564    9.0678 P   0  0  0  0  0  0
   -8.6503   14.9958    8.4424 O   0  0  0  0  0  0
  -11.2169   14.8806    8.3201 O   0  0  0  0  0  0
   -8.1128   15.4876    7.2241 C   0  0  0  0  0  0
   -6.7876   14.7736    6.8563 C   0  0  0  0  0  0
   -7.0950   13.2544    6.6254 C   0  0  2  0  0  0
   -6.1908   15.4505    5.5993 C   0  0  0  0  0  0
   -5.7936   14.9408    8.0298 C   0  0  0  0  0  0
   -5.8670   12.3535    6.3938 C   0  0  0  0  0  0
   -7.9903   13.0810    5.5423 O   0  0  0  0  0  0
   -6.0729   11.0320    6.4977 N   0  0  0  0  0  0
   -4.7713   12.8355    6.1048 O   0  0  0  0  0  0
   -5.0597   10.0171    6.2423 C   0  0  0  0  0  0
   -4.7386    9.9414    4.7399 C   0  0  0  0  0  0
   -4.2688    8.5512    4.3009 C   0  0  0  0  0  0
   -3.5273    8.4994    3.1838 N   0  0  0  0  0  0
   -4.5745    7.5526    4.9525 O   0  0  0  0  0  0
   -3.1258    7.2752    2.5002 C   0  0  0  0  0  0
   -1.6293    6.9862    2.6859 C   0  0  0  0  0  0
   -1.1677    5.4181    1.8897 S   0  0  0  0  0  0
    0.6530    5.3943    2.0189 C   0  0  0  0  0  0
    1.3601    4.2678    2.8186 C   0  0  1  0  0  0
    1.2925    6.3047    1.4979 O   0  0  0  0  0  0
    1.5117    2.8998    2.0714 C   0  0  2  0  0  0
    2.6373    4.7493    3.5770 C   0  0  0  0  0  0
    1.8556    1.6558    2.8934 C   0  0  0  0  0  0
    2.3652    3.0608    0.9523 O   0  0  0  0  0  0
    3.8516    5.1421    2.7200 C   0  0  0  0  0  0
    3.1178    1.5562    3.5193 C   0  0  0  0  0  0
    0.9080    0.6274    3.1029 C   0  0  0  0  0  0
    4.9333    5.3035    3.3258 O   0  0  0  0  0  0
    3.4441    0.4328    4.3031 C   0  0  0  0  0  0
    1.2315   -0.4963    3.8878 C   0  0  0  0  0  0
    2.5019   -0.5965    4.4852 C   0  0  0  0  0  0
   -9.3517    7.7482   11.2998 H   0  0  0  0  0  0
  -11.7791   10.1913   13.1511 H   0  0  0  0  0  0
  -12.0408    7.8416   11.8784 H   0  0  0  0  0  0
  -12.6237    9.9308   11.1982 H   0  0  0  0  0  0
  -10.8927    6.4150   10.4666 H   0  0  0  0  0  0
  -10.7704   10.5858    9.0223 H   0  0  0  0  0  0
   -5.8974    7.7557   14.1334 H   0  0  0  0  0  0
  -11.6223   12.3748   10.4927 H   0  0  0  0  0  0
  -11.0242   11.5316   11.8997 H   0  0  0  0  0  0
   -7.4946   10.0412   17.6326 H   0  0  0  0  0  0
   -9.0862   10.6223   17.1801 H   0  0  0  0  0  0
   -8.8416   15.3685    6.4219 H   0  0  0  0  0  0
   -7.9598   16.5616    7.3267 H   0  0  0  0  0  0
   -7.6168   12.8794    7.5077 H   0  0  0  0  0  0
   -5.2268   15.0264    5.3216 H   0  0  0  0  0  0
   -6.8545   15.3586    4.7389 H   0  0  0  0  0  0
   -6.0302   16.5162    5.7646 H   0  0  0  0  0  0
   -4.8227   14.4946    7.8143 H   0  0  0  0  0  0
   -5.6081   15.9923    8.2499 H   0  0  0  0  0  0
   -6.1759   14.4797    8.9410 H   0  0  0  0  0  0
   -7.5325   13.2549    4.7350 H   0  0  0  0  0  0
   -6.9894   10.7130    6.7765 H   0  0  0  0  0  0
   -4.1584   10.2578    6.8093 H   0  0  0  0  0  0
   -5.4223    9.0536    6.6049 H   0  0  0  0  0  0
   -5.6201   10.2072    4.1553 H   0  0  0  0  0  0
   -3.9669   10.6732    4.4954 H   0  0  0  0  0  0
   -3.2134    9.3708    2.7817 H   0  0  0  0  0  0
   -3.7150    6.4534    2.9082 H   0  0  0  0  0  0
   -3.3740    7.3386    1.4392 H   0  0  0  0  0  0
   -1.0465    7.8039    2.2647 H   0  0  0  0  0  0
   -1.4037    6.9231    3.7510 H   0  0  0  0  0  0
    0.6709    4.0018    3.6143 H   0  0  0  0  0  0
    0.5397    2.6910    1.6223 H   0  0  0  0  0  0
    2.3992    5.6225    4.1832 H   0  0  0  0  0  0
    2.9421    3.9806    4.2883 H   0  0  0  0  0  0
    2.2301    2.3297    0.3690 H   0  0  0  0  0  0
    3.8504    2.3392    3.3881 H   0  0  0  0  0  0
   -0.0749    0.6933    2.6605 H   0  0  0  0  0  0
    4.4186    0.3618    4.7632 H   0  0  0  0  0  0
    0.5032   -1.2804    4.0325 H   0  0  0  0  0  0
    2.7515   -1.4588    5.0855 H   0  0  0  0  0  0
  -14.0758    7.1404   10.5227 O   0  5  0  0  0  0
  -15.0978    8.0572    8.2989 O   0  5  0  0  0  0
   -7.8388   14.1051   11.4539 O   0  5  0  0  0  0
  -10.1001   17.0370    9.1082 O   0  5  0  0  0  0
    3.6811    5.3303    1.4961 O   0  5  0  0  0  0
  1  2  1  0  0  0
  1  3  1  0  0  0
  1  4  1  0  0  0
  2  5  1  0  0  0
  2  6  1  0  0  0
  2 59  1  0  0  0
  3  7  2  0  0  0
  3  8  1  0  0  0
  4  9  2  0  0  0
  4 60  1  0  0  0
  5 10  1  0  0  0
  5 11  1  0  0  0
  5 61  1  0  0  0
  6 12  1  0  0  0
  7 13  1  0  0  0
  7  9  1  0  0  0
  8 14  2  0  0  0
 10 15  1  0  0  0
 10 12  1  0  0  0
 10 62  1  0  0  0
 11 63  1  0  0  0
 12 16  1  0  0  0
 12 64  1  0  0  0
 13 17  2  0  0  0
 13 18  1  0  0  0
 14 17  1  0  0  0
 14 65  1  0  0  0
 15 19  1  0  0  0
 16 20  1  0  0  0
 16 66  1  0  0  0
 16 67  1  0  0  0
 18 68  1  0  0  0
 18 69  1  0  0  0
 19 21  2  0  0  0
 19100  1  0  0  0
 19101  1  0  0  0
 20 22  1  0  0  0
 22 23  1  0  0  0
 22 24  2  0  0  0
 22102  1  0  0  0
 23 25  1  0  0  0
 25 26  1  0  0  0
 25 27  2  0  0  0
 25103  1  0  0  0
 26 28  1  0  0  0
 28 29  1  0  0  0
 28 70  1  0  0  0
 28 71  1  0  0  0
 29 30  1  0  0  0
 29 31  1  0  0  0
 29 32  1  0  0  0
 30 33  1  0  0  0
 30 34  1  0  0  0
 30 72  1  0  0  0
 31 73  1  0  0  0
 31 74  1  0  0  0
 31 75  1  0  0  0
 32 76  1  0  0  0
 32 77  1  0  0  0
 32 78  1  0  0  0
 33 35  1  0  0  0
 33 36  2  0  0  0
 34 79  1  0  0  0
 35 37  1  0  0  0
 35 80  1  0  0  0
 37 38  1  0  0  0
 37 81  1  0  0  0
 37 82  1  0  0  0
 38 39  1  0  0  0
 38 83  1  0  0  0
 38 84  1  0  0  0
 39 40  1  0  0  0
 39 41  2  0  0  0
 40 42  1  0  0  0
 40 85  1  0  0  0
 42 43  1  0  0  0
 42 86  1  0  0  0
 42 87  1  0  0  0
 43 44  1  0  0  0
 43 88  1  0  0  0
 43 89  1  0  0  0
 44 45  1  0  0  0
 45 46  1  0  0  0
 45 47  2  0  0  0
 46 48  1  0  0  0
 46 49  1  0  0  0
 46 90  1  0  0  0
 48 50  1  0  0  0
 48 51  1  0  0  0
 48 91  1  0  0  0
 49 52  1  0  0  0
 49 92  1  0  0  0
 49 93  1  0  0  0
 50 53  1  0  0  0
 50 54  2  0  0  0
 51 94  1  0  0  0
 52 55  2  0  0  0
 52104  1  0  0  0
 53 56  2  0  0  0
 53 95  1  0  0  0
 54 57  1  0  0  0
 54 96  1  0  0  0
 56 58  1  0  0  0
 56 97  1  0  0  0
 57 58  2  0  0  0
 57 98  1  0  0  0
 58 99  1  0  0  0
M  CHG  5 100  -1 101  -1 102  -1 103  -1 104  -1
M  END
> <i_ionizer_Ion_state_n>
62

> <i_ionizer_Tot_Q>
-5

> <s_ionizer_Ion_centers>
100_101_102_103_104

> <s_ionizer_Ion_types>
OM_OM_OM_OM_OM

> <s_ionizer_Ion_ctrs_in>
21_22_26_30_59

> <r_ionizer_Ionization_penalty>
0.000640761

> <r_ionizer_Ionization_penalty_charging>
0.000622025

> <r_ionizer_Ionization_penalty_neutral>
1.87357e-05

> <s_st_Chirality_1>
2_R_6_1_5_59

> <s_st_Chirality_2>
5_R_11_2_10_61

> <s_st_Chirality_3>
10_R_15_5_12_62

> <s_st_Chirality_4>
12_R_6_10_16_64

> <s_st_Chirality_5>
46_R_45_48_49_90

> <s_st_Chirality_6>
48_R_51_50_46_91

> <s_st_Chirality_7>
30_R_34_33_29_72

> <i_mmod_Serial_Number-OPLS-2005>
916

> <i_i_glide_lignum>
904

> <r_i_docking_score>
-5.05909

> <r_i_glide_gscore>
-5.05909

> <r_i_glide_lipo>
-1.25341

> <r_i_glide_hbond>
-1.30118

> <r_i_glide_metal>
0

> <r_i_glide_eburp>
-4.11997e-18

> <r_i_glide_evdw>
-33.3688

> <r_i_glide_ecoul>
-5.15382

> <r_i_glide_erotb>
0.395579

> <r_i_glide_esite>
0.284803

> <r_i_glide_emodel>
-80.472

> <r_i_glide_energy>
-38.5226

> <r_i_glide_einternal>
5.80011

> <i_i_glide_confnum>
261

> <i_i_glide_posenum>
847

$$$$
C05100
                    3D
 Structure written by MMmdl.
 19 18  0  0  1  0            999 V2000
    1.7982   -0.3752    3.3066 C   0  0  2  0  0  0
    3.1475    0.3487    3.0720 C   0  0  0  0  0  0
    0.6965    0.1331    2.3570 C   0  0  0  0  0  0
    1.3160   -0.2756    4.7676 C   0  0  0  0  0  0
    4.1088    0.0907    4.1406 N   0  0  0  0  0  0
    0.4561    1.3605    2.3808 O   0  0  0  0  0  0
    4.8989    1.0160    4.7011 C   0  0  0  0  0  0
    5.7088    0.5023    5.6261 N   0  0  0  0  0  0
    4.8947    2.2096    4.4096 O   0  0  0  0  0  0
    1.9337   -1.4312    3.0685 H   0  0  0  0  0  0
    2.9909    1.4268    3.0188 H   0  0  0  0  0  0
    3.5838    0.0541    2.1153 H   0  0  0  0  0  0
    1.1984    0.7641    5.0750 H   0  0  0  0  0  0
    0.3573   -0.7755    4.9116 H   0  0  0  0  0  0
    2.0242   -0.7453    5.4500 H   0  0  0  0  0  0
    4.1760   -0.8618    4.4656 H   0  0  0  0  0  0
    6.3479    1.1152    6.1103 H   0  0  0  0  0  0
    5.6872   -0.4831    5.8398 H   0  0  0  0  0  0
    0.1103   -0.6936    1.6225 O   0  5  0  0  0  0
  1  2  1  0  0  0
  1  3  1  0  0  0
  1  4  1  0  0  0
  1 10  1  0  0  0
  2  5  1  0  0  0
  2 11  1  0  0  0
  2 12  1  0  0  0
  3  6  2  0  0  0
  3 19  1  0  0  0
  4 13  1  0  0  0
  4 14  1  0  0  0
  4 15  1  0  0  0
  5  7  1  0  0  0
  5 16  1  0  0  0
  7  8  1  0  0  0
  7  9  2  0  0  0
  8 17  1  0  0  0
  8 18  1  0  0  0
M  CHG  1  19  -1
M  END
> <i_ionizer_Ion_state_n>
1

> <i_ionizer_Tot_Q>
-1

> <s_ionizer_Ion_centers>
19

> <s_ionizer_Ion_types>
OM

> <s_ionizer_Ion_ctrs_in>
6

> <r_ionizer_Ionization_penalty>
0.00059219

> <r_ionizer_Ionization_penalty_charging>
0.00059219

> <r_ionizer_Ionization_penalty_neutral>
0

> <s_st_Chirality_1>
1_R_3_2_4_10

> <i_mmod_Serial_Number-OPLS-2005>
621

> <i_i_glide_lignum>
614

> <r_i_docking_score>
-5.05785

> <r_i_glide_gscore>
-5.05785

> <r_i_glide_lipo>
-0.308212

> <r_i_glide_hbond>
-1.24388

> <r_i_glide_metal>
0

> <r_i_glide_eburp>
-2.5

> <r_i_glide_evdw>
-18.7592

> <r_i_glide_ecoul>
-8.19429

> <r_i_glide_erotb>
1.57395

> <r_i_glide_esite>
-0.259553

> <r_i_glide_emodel>
-46.0627

> <r_i_glide_energy>
-26.9535

> <r_i_glide_einternal>
3.91495

> <i_i_glide_confnum>
6

> <i_i_glide_posenum>
195

$$$$
C03232
                    3D
 Structure written by MMmdl.
 13 12  0  0  1  0            999 V2000
    0.4022    4.7089    3.0970 P   0  0  0  0  0  0
    1.2620    3.1774    3.4203 O   0  0  0  0  0  0
   -1.0747    4.2544    3.0989 O   0  0  0  0  0  0
    0.8328    2.0977    2.6088 C   0  0  0  0  0  0
    1.2073    0.7633    3.2615 C   0  0  0  0  0  0
    0.9823   -0.5136    2.4202 C   0  0  0  0  0  0
    1.6663    0.7170    4.4050 O   0  0  0  0  0  0
    1.7002   -1.5001    2.7005 O   0  0  0  0  0  0
   -0.2476    2.1449    2.4712 H   0  0  0  0  0  0
    1.2993    2.1654    1.6257 H   0  0  0  0  0  0
    0.8422    5.5721    4.3001 O   0  5  0  0  0  0
    0.9832    5.1198    1.7254 O   0  5  0  0  0  0
    0.1003   -0.4411    1.5345 O   0  5  0  0  0  0
  1  2  1  0  0  0
  1  3  2  0  0  0
  1 11  1  0  0  0
  1 12  1  0  0  0
  2  4  1  0  0  0
  4  5  1  0  0  0
  4  9  1  0  0  0
  4 10  1  0  0  0
  5  6  1  0  0  0
  5  7  2  0  0  0
  6  8  2  0  0  0
  6 13  1  0  0  0
M  CHG  3  11  -1  12  -1  13  -1
M  END
> <i_ionizer_Ion_state_n>
7

> <i_ionizer_Tot_Q>
-3

> <s_ionizer_Ion_centers>
11_12_13

> <s_ionizer_Ion_types>
OM_OM_OM

> <s_ionizer_Ion_ctrs_in>
3_4_10

> <r_ionizer_Ionization_penalty>
0.000607108

> <r_ionizer_Ionization_penalty_charging>
0.000607108

> <r_ionizer_Ionization_penalty_neutral>
0

> <i_mmod_Serial_Number-OPLS-2005>
531

> <i_i_glide_lignum>
525

> <r_i_docking_score>
-5.0577

> <r_i_glide_gscore>
-5.0577

> <r_i_glide_lipo>
-0.0664426

> <r_i_glide_hbond>
-1.51991

> <r_i_glide_metal>
0

> <r_i_glide_eburp>
-2.41652

> <r_i_glide_evdw>
-13.7834

> <r_i_glide_ecoul>
-5.84633

> <r_i_glide_erotb>
1.10085

> <r_i_glide_esite>
-0.468375

> <r_i_glide_emodel>
-56.7887

> <r_i_glide_energy>
-19.6297

> <r_i_glide_einternal>
1.42325

> <i_i_glide_confnum>
7

> <i_i_glide_posenum>
48

$$$$
C05200
                    3D
 Structure written by MMmdl.
 94 94  0  0  1  0            999 V2000
   -5.7183    9.4114   12.3469 C   0  0  0  0  0  0
   -5.6280    8.2364   13.3045 C   0  0  0  0  0  0
   -6.4954    7.9078   14.2840 C   0  0  0  0  0  0
   -6.2753    6.6698   15.1403 C   0  0  0  0  0  0
   -7.7442    8.7076   14.6243 C   0  0  0  0  0  0
   -5.1637    5.7579   14.5989 C   0  0  0  0  0  0
   -3.9630   10.6402    8.5891 C   0  0  0  0  0  0
   -4.4523   10.3586   10.0001 C   0  0  0  0  0  0
   -3.8658   10.7025   11.1658 C   0  0  0  0  0  0
   -4.5202   10.3616   12.4964 C   0  0  0  0  0  0
   -2.5441   11.4483   11.2803 C   0  0  0  0  0  0
   -3.5280   10.3571    4.2824 C   0  0  0  0  0  0
   -3.9161   10.5011    5.7434 C   0  0  0  0  0  0
   -4.7277   11.4303    6.2891 C   0  0  0  0  0  0
   -4.9896   11.4564    7.7877 C   0  0  0  0  0  0
   -5.4399   12.5157    5.4956 C   0  0  0  0  0  0
   -0.7706    6.3332    3.0759 C   0  0  0  0  0  0
   -1.9818    7.2477    3.0250 C   0  0  0  0  0  0
   -2.4235    8.0795    3.9907 C   0  0  0  0  0  0
   -3.6828    8.9094    3.7919 C   0  0  0  0  0  0
   -1.7386    8.2686    5.3361 C   0  0  0  0  0  0
    3.1225    4.4501    3.3582 C   0  0  0  0  0  0
    1.8013    5.1473    3.0931 C   0  0  0  0  0  0
    3.1813    3.0396    2.7938 C   0  0  0  0  0  0
    1.4742    5.8283    1.9775 C   0  0  0  0  0  0
    0.1114    6.4865    1.8272 C   0  0  0  0  0  0
    2.4117    5.9953    0.7913 C   0  0  0  0  0  0
   -5.1290    4.4229   15.3222 C   0  0  0  0  0  0
   -4.0996    3.8808   16.0049 C   0  0  0  0  0  0
   -4.2408    2.5405   16.7001 C   0  0  0  0  0  0
   -2.7287    4.5182   16.1626 C   0  0  0  0  0  0
    2.3923    2.0258    3.3777 C   0  0  0  0  0  0
    4.0094    2.7296    1.6908 C   0  0  0  0  0  0
    2.4209    0.7041    2.8762 C   0  0  0  0  0  0
    4.0442    1.4142    1.1846 C   0  0  0  0  0  0
    4.7803    3.6905    1.1002 O   0  0  0  0  0  0
    3.2550    0.4082    1.7745 C   0  0  0  0  0  0
    1.5765   -0.3713    3.5043 C   0  0  0  0  0  0
    4.8431    1.1102    0.1187 O   0  0  0  0  0  0
    0.9355   -0.1051    4.5456 O   0  0  0  0  0  0
   -6.6557    9.9491   12.4739 H   0  0  0  0  0  0
   -5.7443    9.0099   11.3333 H   0  0  0  0  0  0
   -4.7593    7.6111   13.1569 H   0  0  0  0  0  0
   -6.0315    6.9696   16.1607 H   0  0  0  0  0  0
   -7.2139    6.1177   15.2029 H   0  0  0  0  0  0
   -8.6316    8.2146   14.2273 H   0  0  0  0  0  0
   -7.8552    8.7850   15.7061 H   0  0  0  0  0  0
   -7.7163    9.7246   14.2378 H   0  0  0  0  0  0
   -5.2663    5.6227   13.5245 H   0  0  0  0  0  0
   -4.1944    6.2360   14.7436 H   0  0  0  0  0  0
   -3.0103   11.1637    8.5951 H   0  0  0  0  0  0
   -3.7906    9.6828    8.0962 H   0  0  0  0  0  0
   -5.3871    9.8182   10.0416 H   0  0  0  0  0  0
   -4.8362   11.2881   12.9775 H   0  0  0  0  0  0
   -3.7830    9.9109   13.1626 H   0  0  0  0  0  0
   -1.9404   11.3971   10.3771 H   0  0  0  0  0  0
   -2.7206   12.4983   11.5136 H   0  0  0  0  0  0
   -1.9429   11.0208   12.0831 H   0  0  0  0  0  0
   -4.0986   11.0397    3.6560 H   0  0  0  0  0  0
   -2.4875   10.6684    4.1851 H   0  0  0  0  0  0
   -3.4734    9.7604    6.3936 H   0  0  0  0  0  0
   -5.9918   11.0746    7.9883 H   0  0  0  0  0  0
   -4.9879   12.4939    8.1244 H   0  0  0  0  0  0
   -5.5017   12.2936    4.4319 H   0  0  0  0  0  0
   -6.4636   12.6294    5.8531 H   0  0  0  0  0  0
   -4.9307   13.4718    5.6167 H   0  0  0  0  0  0
   -0.1916    6.5006    3.9815 H   0  0  0  0  0  0
   -1.1347    5.3076    3.1442 H   0  0  0  0  0  0
   -2.5319    7.2015    2.0961 H   0  0  0  0  0  0
   -4.5174    8.4386    4.3136 H   0  0  0  0  0  0
   -3.9433    8.8996    2.7327 H   0  0  0  0  0  0
   -0.7038    7.9314    5.3376 H   0  0  0  0  0  0
   -1.7256    9.3254    5.6038 H   0  0  0  0  0  0
   -2.2758    7.7285    6.1156 H   0  0  0  0  0  0
    3.9320    5.0424    2.9301 H   0  0  0  0  0  0
    3.2982    4.4194    4.4342 H   0  0  0  0  0  0
    1.0732    5.0727    3.8883 H   0  0  0  0  0  0
   -0.4047    6.0582    0.9666 H   0  0  0  0  0  0
    0.2573    7.5430    1.5989 H   0  0  0  0  0  0
    3.3276    5.4151    0.8950 H   0  0  0  0  0  0
    1.9183    5.6692   -0.1245 H   0  0  0  0  0  0
    2.6955    7.0405    0.6714 H   0  0  0  0  0  0
   -6.0529    3.8656   15.2642 H   0  0  0  0  0  0
   -3.5225    1.8267   16.2961 H   0  0  0  0  0  0
   -4.0533    2.6480   17.7687 H   0  0  0  0  0  0
   -5.2400    2.1226   16.5727 H   0  0  0  0  0  0
   -2.5776    4.8290   17.1965 H   0  0  0  0  0  0
   -1.9532    3.7939   15.9124 H   0  0  0  0  0  0
   -2.5740    5.3827   15.5207 H   0  0  0  0  0  0
    1.7587    2.2704    4.2183 H   0  0  0  0  0  0
    4.5577    3.7917    0.1867 H   0  0  0  0  0  0
    3.2922   -0.5951    1.3751 H   0  0  0  0  0  0
    4.6779    0.2468   -0.2283 H   0  0  0  0  0  0
    1.5400   -1.5006    2.9665 O   0  5  0  0  0  0
  1 10  1  0  0  0
  1  2  1  0  0  0
  1 41  1  0  0  0
  1 42  1  0  0  0
  2  3  2  0  0  0
  2 43  1  0  0  0
  3  4  1  0  0  0
  3  5  1  0  0  0
  4  6  1  0  0  0
  4 44  1  0  0  0
  4 45  1  0  0  0
  5 46  1  0  0  0
  5 47  1  0  0  0
  5 48  1  0  0  0
  6 28  1  0  0  0
  6 49  1  0  0  0
  6 50  1  0  0  0
  7  8  1  0  0  0
  7 15  1  0  0  0
  7 51  1  0  0  0
  7 52  1  0  0  0
  8  9  2  0  0  0
  8 53  1  0  0  0
  9 10  1  0  0  0
  9 11  1  0  0  0
 10 54  1  0  0  0
 10 55  1  0  0  0
 11 56  1  0  0  0
 11 57  1  0  0  0
 11 58  1  0  0  0
 12 20  1  0  0  0
 12 13  1  0  0  0
 12 59  1  0  0  0
 12 60  1  0  0  0
 13 14  2  0  0  0
 13 61  1  0  0  0
 14 15  1  0  0  0
 14 16  1  0  0  0
 15 62  1  0  0  0
 15 63  1  0  0  0
 16 64  1  0  0  0
 16 65  1  0  0  0
 16 66  1  0  0  0
 17 26  1  0  0  0
 17 18  1  0  0  0
 17 67  1  0  0  0
 17 68  1  0  0  0
 18 19  2  0  0  0
 18 69  1  0  0  0
 19 20  1  0  0  0
 19 21  1  0  0  0
 20 70  1  0  0  0
 20 71  1  0  0  0
 21 72  1  0  0  0
 21 73  1  0  0  0
 21 74  1  0  0  0
 22 23  1  0  0  0
 22 24  1  0  0  0
 22 75  1  0  0  0
 22 76  1  0  0  0
 23 25  2  0  0  0
 23 77  1  0  0  0
 24 32  1  0  0  0
 24 33  2  0  0  0
 25 26  1  0  0  0
 25 27  1  0  0  0
 26 78  1  0  0  0
 26 79  1  0  0  0
 27 80  1  0  0  0
 27 81  1  0  0  0
 27 82  1  0  0  0
 28 29  2  0  0  0
 28 83  1  0  0  0
 29 30  1  0  0  0
 29 31  1  0  0  0
 30 84  1  0  0  0
 30 85  1  0  0  0
 30 86  1  0  0  0
 31 87  1  0  0  0
 31 88  1  0  0  0
 31 89  1  0  0  0
 32 34  2  0  0  0
 32 90  1  0  0  0
 33 35  1  0  0  0
 33 36  1  0  0  0
 34 37  1  0  0  0
 34 38  1  0  0  0
 35 39  1  0  0  0
 35 37  2  0  0  0
 36 91  1  0  0  0
 37 92  1  0  0  0
 38 40  2  0  0  0
 38 94  1  0  0  0
 39 93  1  0  0  0
M  CHG  1  94  -1
M  END
> <i_ionizer_Ion_state_n>
4

> <i_ionizer_Tot_Q>
-1

> <s_ionizer_Ion_centers>
94

> <s_ionizer_Ion_types>
OM

> <s_ionizer_Ion_ctrs_in>
40

> <r_ionizer_Ionization_penalty>
0.00177657

> <r_ionizer_Ionization_penalty_charging>
0.00059219

> <r_ionizer_Ionization_penalty_neutral>
0.00118438

> <s_st_EZ_1>
1_2_3_4_E

> <s_st_EZ_2>
7_8_9_10_E

> <s_st_EZ_3>
12_13_14_15_E

> <s_st_EZ_4>
17_18_19_20_E

> <s_st_EZ_5>
22_23_25_26_E

> <i_mmod_Serial_Number-OPLS-2005>
641

> <i_i_glide_lignum>
634

> <r_i_docking_score>
-5.05729

> <r_i_glide_gscore>
-5.05729

> <r_i_glide_lipo>
-1.76159

> <r_i_glide_hbond>
-0.820489

> <r_i_glide_metal>
0

> <r_i_glide_eburp>
5.55112e-17

> <r_i_glide_evdw>
-35.2451

> <r_i_glide_ecoul>
-7.48872

> <r_i_glide_erotb>
1.187

> <r_i_glide_esite>
-0.0937328

> <r_i_glide_emodel>
-66.652

> <r_i_glide_energy>
-42.7338

> <r_i_glide_einternal>
14.892

> <i_i_glide_confnum>
456

> <i_i_glide_posenum>
929

$$$$
C11419
                    3D
 Structure written by MMmdl.
 28 27  0  0  1  0            999 V2000
    0.5363    3.7043    3.3155 C   0  0  0  0  0  0
    2.2154   -0.4773    3.2020 C   0  0  0  0  0  0
    2.0650   -0.2468    4.7017 C   0  0  0  0  0  0
    1.3560   -1.0887    2.5677 O   0  0  0  0  0  0
    3.4778    0.0842    2.5414 C   0  0  0  0  0  0
    3.2069    1.2910    1.6116 C   0  0  0  0  0  0
    2.6013    2.5566    2.2770 C   0  0  1  0  0  0
    1.1669    2.3875    2.8434 C   0  0  0  0  0  0
   -0.7003    3.7012    3.4999 O   0  0  0  0  0  0
    3.5396    3.2002    3.3004 C   0  0  0  0  0  0
    4.0974    2.3220    4.4067 C   0  0  0  0  0  0
    3.8705    4.5013    3.2270 C   0  0  0  0  0  0
    1.1383   -0.6870    5.0710 H   0  0  0  0  0  0
    2.8986   -0.6983    5.2397 H   0  0  0  0  0  0
    2.0492    0.8211    4.9203 H   0  0  0  0  0  0
    3.9586   -0.7293    2.0032 H   0  0  0  0  0  0
    4.1637    0.3709    3.3381 H   0  0  0  0  0  0
    2.5230    0.9594    0.8286 H   0  0  0  0  0  0
    4.1221    1.5746    1.0893 H   0  0  0  0  0  0
    2.5270    3.2897    1.4718 H   0  0  0  0  0  0
    1.1880    1.7111    3.6984 H   0  0  0  0  0  0
    0.5123    1.9238    2.1051 H   0  0  0  0  0  0
    4.5954    2.9211    5.1696 H   0  0  0  0  0  0
    3.3067    1.7549    4.8969 H   0  0  0  0  0  0
    4.8354    1.6276    4.0069 H   0  0  0  0  0  0
    4.5355    4.9521    3.9489 H   0  0  0  0  0  0
    3.4833    5.1387    2.4455 H   0  0  0  0  0  0
    1.2920    4.6842    3.4979 O   0  5  0  0  0  0
  1  9  2  0  0  0
  1  8  1  0  0  0
  1 28  1  0  0  0
  2  3  1  0  0  0
  2  4  2  0  0  0
  2  5  1  0  0  0
  3 13  1  0  0  0
  3 14  1  0  0  0
  3 15  1  0  0  0
  5  6  1  0  0  0
  5 16  1  0  0  0
  5 17  1  0  0  0
  6  7  1  0  0  0
  6 18  1  0  0  0
  6 19  1  0  0  0
  7  8  1  0  0  0
  7 10  1  0  0  0
  7 20  1  0  0  0
  8 21  1  0  0  0
  8 22  1  0  0  0
 10 11  1  0  0  0
 10 12  2  0  0  0
 11 23  1  0  0  0
 11 24  1  0  0  0
 11 25  1  0  0  0
 12 26  1  0  0  0
 12 27  1  0  0  0
M  CHG  1  28  -1
M  END
> <i_ionizer_Ion_state_n>
1

> <i_ionizer_Tot_Q>
-1

> <s_ionizer_Ion_centers>
28

> <s_ionizer_Ion_types>
OM

> <s_ionizer_Ion_ctrs_in>
2

> <r_ionizer_Ionization_penalty>
0.00059219

> <r_ionizer_Ionization_penalty_charging>
0.00059219

> <r_ionizer_Ionization_penalty_neutral>
0

> <s_st_Chirality_1>
7_S_10_8_6_20

> <i_mmod_Serial_Number-OPLS-2005>
932

> <i_i_glide_lignum>
916

> <r_i_docking_score>
-5.05311

> <r_i_glide_gscore>
-5.05311

> <r_i_glide_lipo>
-0.622453

> <r_i_glide_hbond>
-1.17064

> <r_i_glide_metal>
0

> <r_i_glide_eburp>
-2.39978

> <r_i_glide_evdw>
-20.4127

> <r_i_glide_ecoul>
-5.30606

> <r_i_glide_erotb>
2.15817

> <r_i_glide_esite>
-0.854786

> <r_i_glide_emodel>
-47.0514

> <r_i_glide_energy>
-25.7188

> <r_i_glide_einternal>
6.87552

> <i_i_glide_confnum>
51

> <i_i_glide_posenum>
999

$$$$
C00437
                    3D
 Structure written by MMmdl.
 26 25  0  0  1  0            999 V2000
    1.6085    3.4251    2.4519 C   0  0  2  0  0  0
    1.0525    4.7732    2.3382 N   0  0  0  0  0  0
    0.8051    2.6276    3.4943 C   0  0  0  0  0  0
    3.0776    3.5481    2.9181 C   0  0  0  0  0  0
   -0.2422    5.0963    2.4765 C   0  0  0  0  0  0
    0.8866    1.3789    3.4611 O   0  0  0  0  0  0
    3.8457    2.2131    2.9358 C   0  0  0  0  0  0
   -0.5842    6.5756    2.3397 C   0  0  0  0  0  0
   -1.1315    4.2755    2.6979 O   0  0  0  0  0  0
    3.4912    1.3478    4.1515 C   0  0  0  0  0  0
    1.5710    2.9184    1.4855 H   0  0  0  0  0  0
    1.7157    5.5226    2.2089 H   0  0  0  0  0  0
    3.5985    4.2342    2.2485 H   0  0  0  0  0  0
    3.1223    4.0079    3.9071 H   0  0  0  0  0  0
    3.6337    1.6496    2.0263 H   0  0  0  0  0  0
    4.9177    2.4152    2.9301 H   0  0  0  0  0  0
   -1.6541    6.7394    2.4721 H   0  0  0  0  0  0
   -0.0539    7.1595    3.0924 H   0  0  0  0  0  0
   -0.3018    6.9425    1.3527 H   0  0  0  0  0  0
    3.6770    1.8957    5.0759 H   0  0  0  0  0  0
    2.4318    1.0894    4.1365 H   0  0  0  0  0  0
    4.0269   -0.4468    4.9750 H   0  0  0  0  0  0
    4.0936   -0.4229    3.3273 H   0  0  0  0  0  0
    0.1003    3.2861    4.2897 O   0  5  0  0  0  0
    4.2807    0.1050    4.1680 N   0  3  0  0  0  0
    5.2643    0.3306    4.2100 H   0  0  0  0  0  0
  1  2  1  0  0  0
  1  3  1  0  0  0
  1  4  1  0  0  0
  1 11  1  0  0  0
  2  5  1  0  0  0
  2 12  1  0  0  0
  3  6  2  0  0  0
  3 24  1  0  0  0
  4  7  1  0  0  0
  4 13  1  0  0  0
  4 14  1  0  0  0
  5  8  1  0  0  0
  5  9  2  0  0  0
  7 10  1  0  0  0
  7 15  1  0  0  0
  7 16  1  0  0  0
  8 17  1  0  0  0
  8 18  1  0  0  0
  8 19  1  0  0  0
 10 20  1  0  0  0
 10 21  1  0  0  0
 10 25  1  0  0  0
 22 25  1  0  0  0
 23 25  1  0  0  0
 25 26  1  0  0  0
M  CHG  2  24  -1  25   1
M  END
> <i_ionizer_Ion_state_n>
3

> <i_ionizer_Tot_Q>
0

> <s_ionizer_Ion_centers>
24_25

> <s_ionizer_Ion_types>
OM_N5

> <s_ionizer_Ion_ctrs_in>
6_12

> <r_ionizer_Ionization_penalty>
0.000779521

> <r_ionizer_Ionization_penalty_charging>
0.000779521

> <r_ionizer_Ionization_penalty_neutral>
0

> <s_st_Chirality_1>
1_S_2_3_4_11

> <i_mmod_Serial_Number-OPLS-2005>
235

> <i_i_glide_lignum>
233

> <r_i_docking_score>
-5.03473

> <r_i_glide_gscore>
-5.03473

> <r_i_glide_lipo>
-0.34827

> <r_i_glide_hbond>
-1.53194

> <r_i_glide_metal>
0

> <r_i_glide_eburp>
-2.46817

> <r_i_glide_evdw>
-14.9089

> <r_i_glide_ecoul>
-11.9085

> <r_i_glide_erotb>
1.75857

> <r_i_glide_esite>
-0.0613525

> <r_i_glide_emodel>
-55.8485

> <r_i_glide_energy>
-26.8174

> <r_i_glide_einternal>
4.29526

> <i_i_glide_confnum>
15

> <i_i_glide_posenum>
825

$$$$
C01346
                    3D
 Structure written by MMmdl.
 35 36  0  0  1  0            999 V2000
    4.8148   -0.2002    0.3334 N   0  0  0  0  0  0
    3.3692   -0.1147    0.7718 C   0  0  2  0  0  0
    5.5931    0.9766    0.3308 C   0  0  0  0  0  0
    5.3839   -1.3904   -0.1021 C   0  0  0  0  0  0
    3.0392    1.2370    1.0779 O   0  0  0  0  0  0
    3.1636   -0.8866    2.0697 C   0  0  0  0  0  0
    6.9153    0.8648   -0.0999 N   0  0  0  0  0  0
    5.1503    2.0699    0.6805 O   0  0  0  0  0  0
    6.6662   -1.4871   -0.5241 C   0  0  0  0  0  0
    2.3080    1.3261    2.2889 C   0  0  1  0  0  0
    2.0688   -0.1129    2.7705 C   0  0  1  0  0  0
    7.5293   -0.3111   -0.5389 C   0  0  0  0  0  0
    3.0666    2.1613    3.3282 C   0  0  0  0  0  0
    0.7881   -0.5766    2.3968 O   0  0  0  0  0  0
    8.7050   -0.2963   -0.8969 O   0  0  0  0  0  0
    3.5353    3.3546    2.7352 O   0  0  0  0  0  0
    2.5956    4.1785    1.5829 P   0  0  0  0  0  0
    1.0359    4.2509    2.2651 O   0  0  0  0  0  0
    3.1295    5.5549    1.4654 O   0  0  0  0  0  0
   -0.4724    5.1963    2.4491 P   0  0  0  0  0  0
   -0.5770    5.9248    1.0907 O   0  0  0  0  0  0
    2.7776   -0.5265   -0.0471 H   0  0  0  0  0  0
    4.7954   -2.2929   -0.1175 H   0  0  0  0  0  0
    2.8018   -1.8892    1.8373 H   0  0  0  0  0  0
    4.0742   -0.9660    2.6647 H   0  0  0  0  0  0
    7.4737    1.7050   -0.1007 H   0  0  0  0  0  0
    7.0523   -2.4412   -0.8538 H   0  0  0  0  0  0
    1.3367    1.7803    2.0850 H   0  0  0  0  0  0
    2.1900   -0.1771    3.8506 H   0  0  0  0  0  0
    2.4272    2.4094    4.1732 H   0  0  0  0  0  0
    3.9118    1.5986    3.7249 H   0  0  0  0  0  0
    0.6779   -0.3953    1.4736 H   0  0  0  0  0  0
    2.5273    3.3255    0.3742 O   0  5  0  0  0  0
   -1.5312    4.0995    2.7010 O   0  5  0  0  0  0
   -0.1390    6.0974    3.6598 O   0  5  0  0  0  0
  1  2  1  0  0  0
  1  3  1  0  0  0
  1  4  1  0  0  0
  2  5  1  0  0  0
  2  6  1  0  0  0
  2 22  1  0  0  0
  3  7  1  0  0  0
  3  8  2  0  0  0
  4  9  2  0  0  0
  4 23  1  0  0  0
  5 10  1  0  0  0
  6 11  1  0  0  0
  6 24  1  0  0  0
  6 25  1  0  0  0
  7 12  1  0  0  0
  7 26  1  0  0  0
  9 12  1  0  0  0
  9 27  1  0  0  0
 10 13  1  0  0  0
 10 11  1  0  0  0
 10 28  1  0  0  0
 11 14  1  0  0  0
 11 29  1  0  0  0
 12 15  2  0  0  0
 13 16  1  0  0  0
 13 30  1  0  0  0
 13 31  1  0  0  0
 14 32  1  0  0  0
 16 17  1  0  0  0
 17 18  1  0  0  0
 17 19  2  0  0  0
 17 33  1  0  0  0
 18 20  1  0  0  0
 20 21  2  0  0  0
 20 34  1  0  0  0
 20 35  1  0  0  0
M  CHG  3  33  -1  34  -1  35  -1
M  END
> <i_ionizer_Ion_state_n>
7

> <i_ionizer_Tot_Q>
-3

> <s_ionizer_Ion_centers>
33_34_35

> <s_ionizer_Ion_types>
OM_OM_OM

> <s_ionizer_Ion_ctrs_in>
19_22_23

> <r_ionizer_Ionization_penalty>
2.23767e-05

> <r_ionizer_Ionization_penalty_charging>
2.23767e-05

> <r_ionizer_Ionization_penalty_neutral>
0

> <s_st_Chirality_1>
2_R_5_1_6_22

> <s_st_Chirality_2>
10_R_5_11_13_28

> <s_st_Chirality_3>
11_S_14_10_6_29

> <i_mmod_Serial_Number-OPLS-2005>
442

> <i_i_glide_lignum>
438

> <r_i_docking_score>
-5.0116

> <r_i_glide_gscore>
-5.0116

> <r_i_glide_lipo>
-0.791586

> <r_i_glide_hbond>
-0.7

> <r_i_glide_metal>
0

> <r_i_glide_eburp>
-0.870133

> <r_i_glide_evdw>
-33.7792

> <r_i_glide_ecoul>
0.759113

> <r_i_glide_erotb>
0.749268

> <r_i_glide_esite>
-0.772725

> <r_i_glide_emodel>
-71.9616

> <r_i_glide_energy>
-33.0201

> <r_i_glide_einternal>
9.97943

> <i_i_glide_confnum>
403

> <i_i_glide_posenum>
510

$$$$
C05520
                    3D
 Structure written by MMmdl.
 20 19  0  0  1  0            999 V2000
    2.8105    1.9484    3.0770 C   0  0  0  0  0  0
    2.9867    0.4211    3.1704 C   0  0  2  0  0  0
    1.8846    2.4818    1.9759 C   0  0  0  0  0  0
    3.4058    2.7130    3.8398 O   0  0  0  0  0  0
    1.6197   -0.2732    3.2861 C   0  0  0  0  0  0
    1.2622    3.8563    2.3116 C   0  0  0  0  0  0
    1.2954   -1.0945    2.3973 O   0  0  0  0  0  0
   -0.0246    3.7476    3.1383 C   0  0  0  0  0  0
   -1.1048    4.1082    2.6199 O   0  0  0  0  0  0
    3.5202    0.0701    2.2856 H   0  0  0  0  0  0
    2.4594    2.5445    1.0508 H   0  0  0  0  0  0
    1.0937    1.7496    1.8075 H   0  0  0  0  0  0
    3.9355   -0.8970    4.4130 H   0  0  0  0  0  0
    4.6866    0.5753    4.3041 H   0  0  0  0  0  0
    1.9734    4.4655    2.8711 H   0  0  0  0  0  0
    1.0306    4.3996    1.3946 H   0  0  0  0  0  0
    3.7970    0.1016    4.3610 N   0  3  0  0  0  0
    3.2951    0.4148    5.1800 H   0  0  0  0  0  0
    0.9044    0.0484    4.2598 O   0  5  0  0  0  0
    0.1015    3.3004    4.2988 O   0  5  0  0  0  0
  1  2  1  0  0  0
  1  3  1  0  0  0
  1  4  2  0  0  0
  2  5  1  0  0  0
  2 10  1  0  0  0
  2 17  1  0  0  0
  3  6  1  0  0  0
  3 11  1  0  0  0
  3 12  1  0  0  0
  5  7  2  0  0  0
  5 19  1  0  0  0
  6  8  1  0  0  0
  6 15  1  0  0  0
  6 16  1  0  0  0
  8  9  2  0  0  0
  8 20  1  0  0  0
 13 17  1  0  0  0
 14 17  1  0  0  0
 17 18  1  0  0  0
M  CHG  3  17   1  19  -1  20  -1
M  END
> <i_ionizer_Ion_state_n>
7

> <i_ionizer_Tot_Q>
-1

> <s_ionizer_Ion_centers>
17_19_20

> <s_ionizer_Ion_types>
N5_OM_OM

> <s_ionizer_Ion_ctrs_in>
6_8_11

> <r_ionizer_Ionization_penalty>
0.00137171

> <r_ionizer_Ionization_penalty_charging>
0.00137171

> <r_ionizer_Ionization_penalty_neutral>
0

> <s_st_Chirality_1>
2_R_17_5_1_10

> <i_mmod_Serial_Number-OPLS-2005>
737

> <i_i_glide_lignum>
728

> <r_i_docking_score>
-4.99295

> <r_i_glide_gscore>
-4.99295

> <r_i_glide_lipo>
-0.203333

> <r_i_glide_hbond>
-1.81034

> <r_i_glide_metal>
0

> <r_i_glide_eburp>
-2.46868

> <r_i_glide_evdw>
-12.3323

> <r_i_glide_ecoul>
-10.2278

> <r_i_glide_erotb>
1.75967

> <r_i_glide_esite>
-0.260897

> <r_i_glide_emodel>
-61.4273

> <r_i_glide_energy>
-22.5602

> <r_i_glide_einternal>
2.70873

> <i_i_glide_confnum>
4

> <i_i_glide_posenum>
295

$$$$
C05356
                    3D
 Structure written by MMmdl.
 55 54  0  0  1  0            999 V2000
    4.9996    0.8009    4.9192 C   0  0  2  0  0  0
    5.1698    2.2526    4.5039 C   0  0  0  0  0  0
    3.6078    0.2494    4.5501 C   0  0  0  0  0  0
    5.3023    0.6142    6.2985 O   0  0  0  0  0  0
    4.2471    2.9552    3.8275 C   0  0  0  0  0  0
    3.4481   -0.0086    3.0434 C   0  0  0  0  0  0
    6.4340   -0.2964    6.4290 O   0  0  0  0  0  0
    4.4370    4.3416    3.4443 C   0  0  0  0  0  0
    2.1726   -0.8110    2.7192 C   0  0  0  0  0  0
    3.5897    5.0669    2.6895 C   0  0  0  0  0  0
    0.9074    0.0554    2.6785 C   0  0  0  0  0  0
    2.2806    4.6023    2.0754 C   0  0  0  0  0  0
   -0.0246   -0.2777    1.9130 O   0  0  0  0  0  0
    2.2028    5.0191    0.6198 C   0  0  0  0  0  0
    1.1981    5.7035    0.0432 C   0  0  0  0  0  0
   -0.0858    6.1509    0.7164 C   0  0  0  0  0  0
   -0.4583    7.5519    0.2678 C   0  0  0  0  0  0
   -1.4753    8.3062    0.7253 C   0  0  0  0  0  0
   -2.5072    7.9228    1.7726 C   0  0  0  0  0  0
   -2.3140    8.7104    3.0769 C   0  0  0  0  0  0
   -3.4956    8.5490    4.0441 C   0  0  0  0  0  0
   -3.2848    9.2895    5.3716 C   0  0  0  0  0  0
   -4.4940    9.1689    6.3052 C   0  0  0  0  0  0
    5.7383    0.2206    4.3664 H   0  0  0  0  0  0
    6.1013    2.7239    4.7828 H   0  0  0  0  0  0
    3.3978   -0.6652    5.1055 H   0  0  0  0  0  0
    2.8503    0.9685    4.8646 H   0  0  0  0  0  0
    3.3306    2.4496    3.5693 H   0  0  0  0  0  0
    3.4256    0.9452    2.5143 H   0  0  0  0  0  0
    4.3242   -0.5454    2.6768 H   0  0  0  0  0  0
    6.0088   -1.1291    6.2894 H   0  0  0  0  0  0
    5.3304    4.8395    3.7932 H   0  0  0  0  0  0
    2.2778   -1.3053    1.7531 H   0  0  0  0  0  0
    2.0298   -1.5964    3.4622 H   0  0  0  0  0  0
    3.8515    6.0946    2.4824 H   0  0  0  0  0  0
    2.1313    3.5290    2.1656 H   0  0  0  0  0  0
    1.4543    5.0668    2.6137 H   0  0  0  0  0  0
    3.0464    4.7322    0.0089 H   0  0  0  0  0  0
    1.2898    5.9669   -1.0005 H   0  0  0  0  0  0
   -0.8823    5.4625    0.4340 H   0  0  0  0  0  0
    0.0170    6.0795    1.7965 H   0  0  0  0  0  0
    0.1743    7.9714   -0.5012 H   0  0  0  0  0  0
   -1.5878    9.2996    0.3155 H   0  0  0  0  0  0
   -3.5182    8.0888    1.4059 H   0  0  0  0  0  0
   -2.4135    6.8544    1.9694 H   0  0  0  0  0  0
   -1.3969    8.3805    3.5667 H   0  0  0  0  0  0
   -2.1786    9.7681    2.8470 H   0  0  0  0  0  0
   -4.4026    8.9232    3.5694 H   0  0  0  0  0  0
   -3.6620    7.4894    4.2428 H   0  0  0  0  0  0
   -2.4019    8.8957    5.8763 H   0  0  0  0  0  0
   -3.0850   10.3434    5.1751 H   0  0  0  0  0  0
   -4.3270    9.7148    7.2338 H   0  0  0  0  0  0
   -5.3952    9.5703    5.8407 H   0  0  0  0  0  0
   -4.6882    8.1276    6.5639 H   0  0  0  0  0  0
    0.8929    1.0481    3.4382 O   0  5  0  0  0  0
  1  2  1  0  0  0
  1  3  1  0  0  0
  1  4  1  0  0  0
  1 24  1  0  0  0
  2  5  2  0  0  0
  2 25  1  0  0  0
  3  6  1  0  0  0
  3 26  1  0  0  0
  3 27  1  0  0  0
  4  7  1  0  0  0
  5  8  1  0  0  0
  5 28  1  0  0  0
  6  9  1  0  0  0
  6 29  1  0  0  0
  6 30  1  0  0  0
  7 31  1  0  0  0
  8 10  2  0  0  0
  8 32  1  0  0  0
  9 11  1  0  0  0
  9 33  1  0  0  0
  9 34  1  0  0  0
 10 12  1  0  0  0
 10 35  1  0  0  0
 11 13  2  0  0  0
 11 55  1  0  0  0
 12 14  1  0  0  0
 12 36  1  0  0  0
 12 37  1  0  0  0
 14 15  2  0  0  0
 14 38  1  0  0  0
 15 16  1  0  0  0
 15 39  1  0  0  0
 16 17  1  0  0  0
 16 40  1  0  0  0
 16 41  1  0  0  0
 17 18  2  0  0  0
 17 42  1  0  0  0
 18 19  1  0  0  0
 18 43  1  0  0  0
 19 20  1  0  0  0
 19 44  1  0  0  0
 19 45  1  0  0  0
 20 21  1  0  0  0
 20 46  1  0  0  0
 20 47  1  0  0  0
 21 22  1  0  0  0
 21 48  1  0  0  0
 21 49  1  0  0  0
 22 23  1  0  0  0
 22 50  1  0  0  0
 22 51  1  0  0  0
 23 52  1  0  0  0
 23 53  1  0  0  0
 23 54  1  0  0  0
M  CHG  1  55  -1
M  END
> <i_ionizer_Ion_state_n>
1

> <i_ionizer_Tot_Q>
-1

> <s_ionizer_Ion_centers>
55

> <s_ionizer_Ion_types>
OM

> <s_ionizer_Ion_ctrs_in>
13

> <r_ionizer_Ionization_penalty>
0.00059219

> <r_ionizer_Ionization_penalty_charging>
0.00059219

> <r_ionizer_Ionization_penalty_neutral>
0

> <s_st_Chirality_1>
1_S_4_2_3_24

> <s_st_EZ_1>
1_2_5_8_E

> <s_st_EZ_2>
12_14_15_16_Z

> <s_st_EZ_3>
16_17_18_19_Z

> <i_mmod_Serial_Number-OPLS-2005>
676

> <i_i_glide_lignum>
669

> <r_i_docking_score>
-4.99111

> <r_i_glide_gscore>
-4.99111

> <r_i_glide_lipo>
-1.45294

> <r_i_glide_hbond>
-1.06957

> <r_i_glide_metal>
0

> <r_i_glide_eburp>
-1.24646

> <r_i_glide_evdw>
-32.0859

> <r_i_glide_ecoul>
-7.69077

> <r_i_glide_erotb>
2.49169

> <r_i_glide_esite>
-0.377899

> <r_i_glide_emodel>
-67.9793

> <r_i_glide_energy>
-39.7766

> <r_i_glide_einternal>
6.90502

> <i_i_glide_confnum>
345

> <i_i_glide_posenum>
421

$$$$
C00197
                    3D
 Structure written by MMmdl.
 15 14  0  0  1  0            999 V2000
    0.1017    4.5067    2.7168 P   0  0  0  0  0  0
    0.9160    2.9247    2.4883 O   0  0  0  0  0  0
    0.5849    5.3215    1.4964 O   0  0  0  0  0  0
    0.7410    1.9793    3.5351 C   0  0  0  0  0  0
    1.6887    0.7640    3.4059 C   0  0  2  0  0  0
    1.1143   -0.4001    2.5794 C   0  0  0  0  0  0
    2.0129    0.2862    4.6964 O   0  0  0  0  0  0
    0.0923   -0.2125    1.8815 O   0  0  0  0  0  0
    0.8989    2.4679    4.4973 H   0  0  0  0  0  0
   -0.2999    1.6546    3.5340 H   0  0  0  0  0  0
    2.6210    1.0732    2.9356 H   0  0  0  0  0  0
    2.6843   -0.3702    4.5871 H   0  0  0  0  0  0
   -1.3872    4.0953    2.6997 O   0  5  0  0  0  0
    0.6549    4.9549    4.0885 O   0  5  0  0  0  0
    1.7012   -1.4996    2.7002 O   0  5  0  0  0  0
  1  2  1  0  0  0
  1  3  2  0  0  0
  1 13  1  0  0  0
  1 14  1  0  0  0
  2  4  1  0  0  0
  4  5  1  0  0  0
  4  9  1  0  0  0
  4 10  1  0  0  0
  5  6  1  0  0  0
  5  7  1  0  0  0
  5 11  1  0  0  0
  6  8  2  0  0  0
  6 15  1  0  0  0
  7 12  1  0  0  0
M  CHG  3  13  -1  14  -1  15  -1
M  END
> <i_ionizer_Ion_state_n>
7

> <i_ionizer_Tot_Q>
-3

> <s_ionizer_Ion_centers>
13_14_15

> <s_ionizer_Ion_types>
OM_OM_OM

> <s_ionizer_Ion_ctrs_in>
3_4_10

> <r_ionizer_Ionization_penalty>
0.000607108

> <r_ionizer_Ionization_penalty_charging>
0.000607108

> <r_ionizer_Ionization_penalty_neutral>
0

> <s_st_Chirality_1>
5_R_7_6_4_11

> <i_mmod_Serial_Number-OPLS-2005>
136

> <i_i_glide_lignum>
134

> <r_i_docking_score>
-4.99042

> <r_i_glide_gscore>
-4.99042

> <r_i_glide_lipo>
-0.166544

> <r_i_glide_hbond>
-1.47669

> <r_i_glide_metal>
0

> <r_i_glide_eburp>
-2.40125

> <r_i_glide_evdw>
-12.0479

> <r_i_glide_ecoul>
-8.40065

> <r_i_glide_erotb>
1.08097

> <r_i_glide_esite>
-0.223006

> <r_i_glide_emodel>
-56.5923

> <r_i_glide_energy>
-20.4486

> <r_i_glide_einternal>
2.65613

> <i_i_glide_confnum>
5

> <i_i_glide_posenum>
395

$$$$
C00101
                    3D
 Structure written by MMmdl.
 53 55  0  0  1  0            999 V2000
   -3.1702   10.9225    7.1593 C   0  0  0  0  0  0
   -2.5104   11.2851    6.0372 C   0  0  0  0  0  0
   -4.3322   10.1784    7.1104 N   0  0  0  0  0  0
   -2.7405   11.2735    8.4407 N   0  0  0  0  0  0
   -2.9691   10.8988    4.7905 N   0  0  0  0  0  0
   -1.2852   12.0822    6.1477 C   0  0  0  0  0  0
   -5.0084    9.8945    5.8481 C   0  0  0  0  0  0
   -1.6590   11.9800    8.5492 C   0  0  0  0  0  0
   -4.0576    9.9379    4.6137 C   0  0  2  0  0  0
   -0.9322   12.3858    7.4206 N   0  0  0  0  0  0
   -0.6091   12.4592    5.1916 O   0  0  0  0  0  0
   -1.0998   12.4100    9.7344 N   0  0  0  0  0  0
   -3.4908    8.5393    4.2911 C   0  0  0  0  0  0
   -2.7573    8.5006    3.0320 N   0  0  0  0  0  0
   -1.7122    7.7162    2.6990 C   0  0  0  0  0  0
   -1.2728    7.7115    1.3598 C   0  0  0  0  0  0
   -1.0441    6.9064    3.6449 C   0  0  0  0  0  0
   -0.1859    6.9070    0.9666 C   0  0  0  0  0  0
    0.0428    6.1012    3.2524 C   0  0  0  0  0  0
    0.4754    6.0864    1.9063 C   0  0  0  0  0  0
    1.6469    5.2489    1.4771 C   0  0  0  0  0  0
    2.0552    4.3306    2.3668 N   0  0  0  0  0  0
    2.1423    5.3837    0.3581 O   0  0  0  0  0  0
    3.1845    3.4189    2.2092 C   0  0  2  0  0  0
    2.6905    1.9993    1.8297 C   0  0  0  0  0  0
    4.0846    3.5086    3.4481 C   0  0  0  0  0  0
    1.8377    1.2574    2.8862 C   0  0  0  0  0  0
    4.2236    2.4775    4.1419 O   0  0  0  0  0  0
    1.1617   -0.0232    2.3818 C   0  0  0  0  0  0
    0.1003    0.0875    1.7287 O   0  0  0  0  0  0
   -4.6439   10.2703    3.7567 H   0  0  0  0  0  0
   -4.8176    9.9606    7.9685 H   0  0  0  0  0  0
   -2.4191   11.1310    3.9756 H   0  0  0  0  0  0
   -5.5370    8.9432    5.9131 H   0  0  0  0  0  0
   -5.7745   10.6614    5.7295 H   0  0  0  0  0  0
   -0.0954   12.9340    7.5493 H   0  0  0  0  0  0
   -1.5011   12.2021   10.6374 H   0  0  0  0  0  0
   -0.2559   12.9604    9.7962 H   0  0  0  0  0  0
   -2.8108    8.2280    5.0850 H   0  0  0  0  0  0
   -4.2874    7.7950    4.2688 H   0  0  0  0  0  0
   -3.1142    9.1067    2.3072 H   0  0  0  0  0  0
   -1.7673    8.3272    0.6224 H   0  0  0  0  0  0
   -1.3495    6.8925    4.6802 H   0  0  0  0  0  0
    0.1344    6.9214   -0.0654 H   0  0  0  0  0  0
    0.5419    5.5007    3.9993 H   0  0  0  0  0  0
    1.5585    4.2602    3.2429 H   0  0  0  0  0  0
    3.7891    3.7843    1.3764 H   0  0  0  0  0  0
    2.0911    2.0764    0.9217 H   0  0  0  0  0  0
    3.5454    1.3796    1.5553 H   0  0  0  0  0  0
    2.4373    1.0238    3.7665 H   0  0  0  0  0  0
    1.0470    1.9230    3.2323 H   0  0  0  0  0  0
    4.6426    4.6080    3.6638 O   0  5  0  0  0  0
    1.7073   -1.1047    2.6921 O   0  5  0  0  0  0
  1  2  2  0  0  0
  1  3  1  0  0  0
  1  4  1  0  0  0
  2  5  1  0  0  0
  2  6  1  0  0  0
  3  7  1  0  0  0
  3 32  1  0  0  0
  4  8  2  0  0  0
  5  9  1  0  0  0
  5 33  1  0  0  0
  6 10  1  0  0  0
  6 11  2  0  0  0
  7  9  1  0  0  0
  7 34  1  0  0  0
  7 35  1  0  0  0
  8 12  1  0  0  0
  8 10  1  0  0  0
  9 13  1  0  0  0
  9 31  1  0  0  0
 10 36  1  0  0  0
 12 37  1  0  0  0
 12 38  1  0  0  0
 13 14  1  0  0  0
 13 39  1  0  0  0
 13 40  1  0  0  0
 14 15  1  0  0  0
 14 41  1  0  0  0
 15 16  1  0  0  0
 15 17  2  0  0  0
 16 18  2  0  0  0
 16 42  1  0  0  0
 17 19  1  0  0  0
 17 43  1  0  0  0
 18 20  1  0  0  0
 18 44  1  0  0  0
 19 20  2  0  0  0
 19 45  1  0  0  0
 20 21  1  0  0  0
 21 22  1  0  0  0
 21 23  2  0  0  0
 22 24  1  0  0  0
 22 46  1  0  0  0
 24 25  1  0  0  0
 24 26  1  0  0  0
 24 47  1  0  0  0
 25 27  1  0  0  0
 25 48  1  0  0  0
 25 49  1  0  0  0
 26 28  2  0  0  0
 26 52  1  0  0  0
 27 29  1  0  0  0
 27 50  1  0  0  0
 27 51  1  0  0  0
 29 30  2  0  0  0
 29 53  1  0  0  0
M  CHG  2  52  -1  53  -1
M  END
> <i_ionizer_Ion_state_n>
6

> <i_ionizer_Tot_Q>
-2

> <s_ionizer_Ion_centers>
52_53

> <s_ionizer_Ion_types>
OM_OM

> <s_ionizer_Ion_ctrs_in>
28_31

> <r_ionizer_Ionization_penalty>
0.00305503

> <r_ionizer_Ionization_penalty_charging>
0.00118438

> <r_ionizer_Ionization_penalty_neutral>
0.00187065

> <s_st_Chirality_1>
9_S_5_7_13_31

> <s_st_Chirality_2>
24_R_22_26_25_47

> <i_mmod_Serial_Number-OPLS-2005>
72

> <i_i_glide_lignum>
71

> <r_i_docking_score>
-4.98364

> <r_i_glide_gscore>
-4.98364

> <r_i_glide_lipo>
-1.01603

> <r_i_glide_hbond>
-1.38289

> <r_i_glide_metal>
0

> <r_i_glide_eburp>
-0.428617

> <r_i_glide_evdw>
-37.5827

> <r_i_glide_ecoul>
-8.85713

> <r_i_glide_erotb>
0.929593

> <r_i_glide_esite>
0.806633

> <r_i_glide_emodel>
-99.7446

> <r_i_glide_energy>
-46.4398

> <r_i_glide_einternal>
11.5289

> <i_i_glide_confnum>
112

> <i_i_glide_posenum>
335

$$$$
C01152
                    3D
 Structure written by MMmdl.
 24 24  0  0  1  0            999 V2000
    3.6217    2.6636    2.4146 C   0  0  0  0  0  0
    3.7305    1.2917    3.0220 C   0  0  0  0  0  0
    4.0652    3.7996    3.0544 N   0  0  0  0  0  0
    3.0965    3.0978    1.2197 C   0  0  0  0  0  0
    2.7385    1.0209    4.1809 C   0  0  1  0  0  0
    3.8466    4.8807    2.2952 C   0  0  0  0  0  0
    4.7013    3.8928    4.3706 C   0  0  0  0  0  0
    1.2737    1.1899    3.7494 C   0  0  0  0  0  0
    0.6073    2.0954    4.2985 O   0  0  0  0  0  0
    3.5933    0.5469    2.2364 H   0  0  0  0  0  0
    4.7523    1.1661    3.3819 H   0  0  0  0  0  0
    2.6392    2.5483    0.4091 H   0  0  0  0  0  0
    2.9577    1.7051    5.0027 H   0  0  0  0  0  0
    4.0964    5.8987    2.5374 H   0  0  0  0  0  0
    4.7795    4.9363    4.6787 H   0  0  0  0  0  0
    4.1011    3.3478    5.0996 H   0  0  0  0  0  0
    5.6984    3.4550    4.3156 H   0  0  0  0  0  0
    2.2637   -0.4837    5.4722 H   0  0  0  0  0  0
    2.6735   -1.0038    3.9650 H   0  0  0  0  0  0
    3.2564    4.4551    1.1766 N   0  3  0  0  0  0
    2.9725    5.0509    0.4088 H   0  0  0  0  0  0
    2.8996   -0.3481    4.6994 N   0  3  0  0  0  0
    3.8499   -0.4911    5.0089 H   0  0  0  0  0  0
    0.8497    0.4137    2.8662 O   0  5  0  0  0  0
  1  2  1  0  0  0
  1  3  1  0  0  0
  1  4  2  0  0  0
  2  5  1  0  0  0
  2 10  1  0  0  0
  2 11  1  0  0  0
  3  6  1  0  0  0
  3  7  1  0  0  0
  4 12  1  0  0  0
  4 20  1  0  0  0
  5  8  1  0  0  0
  5 13  1  0  0  0
  5 22  1  0  0  0
  6 14  1  0  0  0
  6 20  2  0  0  0
  7 15  1  0  0  0
  7 16  1  0  0  0
  7 17  1  0  0  0
  8  9  2  0  0  0
  8 24  1  0  0  0
 18 22  1  0  0  0
 19 22  1  0  0  0
 20 21  1  0  0  0
 22 23  1  0  0  0
M  CHG  3  20   1  22   1  24  -1
M  END
> <i_ionizer_Ion_state_n>
7

> <i_ionizer_Tot_Q>
1

> <s_ionizer_Ion_centers>
20_22_24

> <s_ionizer_Ion_types>
N4_N5_OM

> <s_ionizer_Ion_ctrs_in>
8_10_11

> <r_ionizer_Ionization_penalty>
0.411459

> <r_ionizer_Ionization_penalty_charging>
0.411459

> <r_ionizer_Ionization_penalty_neutral>
0

> <s_st_Chirality_1>
5_S_22_8_2_13

> <i_mmod_Serial_Number-OPLS-2005>
404

> <i_i_glide_lignum>
400

> <r_i_docking_score>
-4.97622

> <r_i_glide_gscore>
-4.97622

> <r_i_glide_lipo>
-0.379441

> <r_i_glide_hbond>
-0.418784

> <r_i_glide_metal>
0

> <r_i_glide_eburp>
-2.49854

> <r_i_glide_evdw>
-16.5234

> <r_i_glide_ecoul>
-5.67571

> <r_i_glide_erotb>
1.21779

> <r_i_glide_esite>
-1.0078

> <r_i_glide_emodel>
-44.4827

> <r_i_glide_energy>
-22.1992

> <r_i_glide_einternal>
0.952111

> <i_i_glide_confnum>
3

> <i_i_glide_posenum>
255

$$$$
C00937
                    3D
 Structure written by MMmdl.
 11 10  0  0  1  0            999 V2000
    4.6827    0.9006    4.3561 C   0  0  1  0  0  0
    3.2755    0.3016    4.3000 C   0  0  0  0  0  0
    4.6752    2.4362    4.2821 C   0  0  0  0  0  0
    5.3154    0.5000    5.5537 O   0  0  0  0  0  0
    2.2806    1.0134    4.1698 O   0  0  0  0  0  0
    5.2540    0.4984    3.5190 H   0  0  0  0  0  0
    3.2217   -0.7853    4.3687 H   0  0  0  0  0  0
    5.6885    2.8357    4.3322 H   0  0  0  0  0  0
    4.2354    2.7873    3.3478 H   0  0  0  0  0  0
    4.1057    2.8736    5.1034 H   0  0  0  0  0  0
    5.2564   -0.4405    5.6262 H   0  0  0  0  0  0
  1  2  1  0  0  0
  1  3  1  0  0  0
  1  4  1  0  0  0
  1  6  1  0  0  0
  2  5  2  0  0  0
  2  7  1  0  0  0
  3  8  1  0  0  0
  3  9  1  0  0  0
  3 10  1  0  0  0
  4 11  1  0  0  0
M  END
> <i_ionizer_Ion_state_n>
0

> <i_ionizer_Tot_Q>
0

> <s_ionizer_Ion_centers>


> <s_ionizer_Ion_types>


> <s_ionizer_Ion_ctrs_in>


> <r_ionizer_Ionization_penalty>
0

> <r_ionizer_Ionization_penalty_charging>
0

> <r_ionizer_Ionization_penalty_neutral>
0

> <s_st_Chirality_1>
1_R_4_2_3_6

> <i_mmod_Serial_Number-OPLS-2005>
360

> <i_i_glide_lignum>
356

> <r_i_docking_score>
-4.96854

> <r_i_glide_gscore>
-4.96854

> <r_i_glide_lipo>
-0.204035

> <r_i_glide_hbond>
-0.45

> <r_i_glide_metal>
0

> <r_i_glide_eburp>
-2.5

> <r_i_glide_evdw>
-11.5728

> <r_i_glide_ecoul>
-6.15126

> <r_i_glide_erotb>
0

> <r_i_glide_esite>
-0.273558

> <r_i_glide_emodel>
-20.496

> <r_i_glide_energy>
-17.724

> <r_i_glide_einternal>
0.56702

> <i_i_glide_confnum>
1

> <i_i_glide_posenum>
157

$$$$
C06607
                    3D
 Structure written by MMmdl.
 20 19  0  0  1  0            999 V2000
    4.4653    1.4621    4.3004 P   0  0  0  0  0  0
    4.8955    0.7872    2.8803 O   0  0  0  0  0  0
    2.9297    0.9374    4.4626 O   0  0  0  0  0  0
    5.2521    0.5011    5.3423 O   0  0  0  0  0  0
    4.7945    3.3886    4.5043 S   0  0  0  0  0  0
    4.0455   -0.0698    2.1297 C   0  0  0  0  0  0
    2.5809   -0.4267    4.6529 C   0  0  0  0  0  0
    4.6559   -0.5081    0.7910 C   0  0  0  0  0  0
    1.0833   -0.6993    4.4557 C   0  0  0  0  0  0
    4.9179   -0.3821    5.3594 H   0  0  0  0  0  0
    3.7830   -0.9421    2.7289 H   0  0  0  0  0  0
    3.1151    0.4670    1.9444 H   0  0  0  0  0  0
    3.1714   -1.0533    3.9840 H   0  0  0  0  0  0
    2.8689   -0.7032    5.6671 H   0  0  0  0  0  0
    3.9349   -1.0822    0.2090 H   0  0  0  0  0  0
    4.9532    0.3551    0.1953 H   0  0  0  0  0  0
    5.5329   -1.1392    0.9345 H   0  0  0  0  0  0
    0.8453   -1.7348    4.6991 H   0  0  0  0  0  0
    0.4810   -0.0588    5.1002 H   0  0  0  0  0  0
    0.7742   -0.5290    3.4245 H   0  0  0  0  0  0
  1  2  1  0  0  0
  1  3  1  0  0  0
  1  4  1  0  0  0
  1  5  2  0  0  0
  2  6  1  0  0  0
  3  7  1  0  0  0
  4 10  1  0  0  0
  6  8  1  0  0  0
  6 11  1  0  0  0
  6 12  1  0  0  0
  7  9  1  0  0  0
  7 13  1  0  0  0
  7 14  1  0  0  0
  8 15  1  0  0  0
  8 16  1  0  0  0
  8 17  1  0  0  0
  9 18  1  0  0  0
  9 19  1  0  0  0
  9 20  1  0  0  0
M  END
> <i_ionizer_Ion_state_n>
0

> <i_ionizer_Tot_Q>
0

> <s_ionizer_Ion_centers>


> <s_ionizer_Ion_types>


> <s_ionizer_Ion_ctrs_in>


> <r_ionizer_Ionization_penalty>
0

> <r_ionizer_Ionization_penalty_charging>
0

> <r_ionizer_Ionization_penalty_neutral>
0

> <i_mmod_Serial_Number-OPLS-2005>
877

> <i_i_glide_lignum>
865

> <r_i_docking_score>
-4.96288

> <r_i_glide_gscore>
-4.96288

> <r_i_glide_lipo>
-0.39786

> <r_i_glide_hbond>
-0.45

> <r_i_glide_metal>
0

> <r_i_glide_eburp>
-2.49873

> <r_i_glide_evdw>
-19.3604

> <r_i_glide_ecoul>
-4.14013

> <r_i_glide_erotb>
1.21808

> <r_i_glide_esite>
-0.871526

> <r_i_glide_emodel>
-27.62

> <r_i_glide_energy>
-23.5005

> <r_i_glide_einternal>
2.18748

> <i_i_glide_confnum>
9

> <i_i_glide_posenum>
591

$$$$
C00328
                    3D
 Structure written by MMmdl.
 27 27  0  0  1  0            999 V2000
    1.6404    3.9771    2.3296 C   0  0  0  0  0  0
    1.4622    2.7432    3.1599 C   0  0  0  0  0  0
    0.5685    4.8729    2.0449 C   0  0  0  0  0  0
    2.9351    4.2978    1.8525 C   0  0  0  0  0  0
    2.5595    1.6663    3.0640 C   0  0  0  0  0  0
    0.4975    2.5551    3.9025 O   0  0  0  0  0  0
    0.8062    6.0371    1.2844 C   0  0  0  0  0  0
   -0.6915    4.6498    2.4587 N   0  0  0  0  0  0
    3.1613    5.4616    1.0947 C   0  0  0  0  0  0
    2.4399    0.5268    4.1119 C   0  0  1  0  0  0
    2.0961    6.3316    0.8083 C   0  0  0  0  0  0
    1.3585   -0.5086    3.7615 C   0  0  0  0  0  0
    1.2986   -0.9151    2.5794 O   0  0  0  0  0  0
    3.7798    3.6605    2.0688 H   0  0  0  0  0  0
    2.5651    1.2413    2.0591 H   0  0  0  0  0  0
    3.5192    2.1691    3.1877 H   0  0  0  0  0  0
   -0.0048    6.7147    1.0591 H   0  0  0  0  0  0
   -1.4080    5.3527    2.3494 H   0  0  0  0  0  0
   -0.8886    3.9012    3.1097 H   0  0  0  0  0  0
    4.1549    5.6891    0.7372 H   0  0  0  0  0  0
    2.2221    0.9610    5.0897 H   0  0  0  0  0  0
    2.2677    7.2257    0.2273 H   0  0  0  0  0  0
    3.6147   -0.9110    4.9477 H   0  0  0  0  0  0
    3.9327   -0.6337    3.3556 H   0  0  0  0  0  0
    3.7142   -0.1974    4.2400 N   0  3  0  0  0  0
    4.4499    0.4431    4.4999 H   0  0  0  0  0  0
    0.6358   -0.9100    4.6989 O   0  5  0  0  0  0
  1  2  1  0  0  0
  1  3  2  0  0  0
  1  4  1  0  0  0
  2  5  1  0  0  0
  2  6  2  0  0  0
  3  7  1  0  0  0
  3  8  1  0  0  0
  4  9  2  0  0  0
  4 14  1  0  0  0
  5 10  1  0  0  0
  5 15  1  0  0  0
  5 16  1  0  0  0
  7 11  2  0  0  0
  7 17  1  0  0  0
  8 18  1  0  0  0
  8 19  1  0  0  0
  9 11  1  0  0  0
  9 20  1  0  0  0
 10 12  1  0  0  0
 10 21  1  0  0  0
 10 25  1  0  0  0
 11 22  1  0  0  0
 12 13  2  0  0  0
 12 27  1  0  0  0
 23 25  1  0  0  0
 24 25  1  0  0  0
 25 26  1  0  0  0
M  CHG  2  25   1  27  -1
M  END
> <i_ionizer_Ion_state_n>
6

> <i_ionizer_Tot_Q>
0

> <s_ionizer_Ion_centers>
25_27

> <s_ionizer_Ion_types>
N5_OM

> <s_ionizer_Ion_ctrs_in>
13_14

> <r_ionizer_Ionization_penalty>
0.00265017

> <r_ionizer_Ionization_penalty_charging>
0.000779521

> <r_ionizer_Ionization_penalty_neutral>
0.00187065

> <s_st_Chirality_1>
10_S_25_12_5_21

> <i_mmod_Serial_Number-OPLS-2005>
193

> <i_i_glide_lignum>
191

> <r_i_docking_score>
-4.95929

> <r_i_glide_gscore>
-4.95929

> <r_i_glide_lipo>
-0.701436

> <r_i_glide_hbond>
-0.369232

> <r_i_glide_metal>
0

> <r_i_glide_eburp>
-2.21046

> <r_i_glide_evdw>
-22.4488

> <r_i_glide_ecoul>
-5.02142

> <r_i_glide_erotb>
1.30888

> <r_i_glide_esite>
-0.688987

> <r_i_glide_emodel>
-52.1069

> <r_i_glide_energy>
-27.4703

> <r_i_glide_einternal>
0.686639

> <i_i_glide_confnum>
1

> <i_i_glide_posenum>
415

$$$$
C05999
                    3D
 Structure written by MMmdl.
 11 10  0  0  1  0            999 V2000
    3.7975    0.4558    3.7469 C   0  0  1  0  0  0
    2.4996   -0.1350    4.3021 C   0  0  0  0  0  0
    3.6065    1.8703    3.1755 C   0  0  0  0  0  0
    4.7687    0.4998    4.7715 O   0  0  0  0  0  0
    1.4213    0.4402    4.1606 O   0  0  0  0  0  0
    4.1614   -0.2079    2.9620 H   0  0  0  0  0  0
    2.5972   -1.0940    4.8119 H   0  0  0  0  0  0
    4.5472    2.2692    2.7948 H   0  0  0  0  0  0
    2.8963    1.8724    2.3478 H   0  0  0  0  0  0
    3.2363    2.5616    3.9339 H   0  0  0  0  0  0
    4.8972   -0.3758    5.1032 H   0  0  0  0  0  0
  1  2  1  0  0  0
  1  3  1  0  0  0
  1  4  1  0  0  0
  1  6  1  0  0  0
  2  5  2  0  0  0
  2  7  1  0  0  0
  3  8  1  0  0  0
  3  9  1  0  0  0
  3 10  1  0  0  0
  4 11  1  0  0  0
M  END
> <i_ionizer_Ion_state_n>
0

> <i_ionizer_Tot_Q>
0

> <s_ionizer_Ion_centers>


> <s_ionizer_Ion_types>


> <s_ionizer_Ion_ctrs_in>


> <r_ionizer_Ionization_penalty>
0

> <r_ionizer_Ionization_penalty_charging>
0

> <r_ionizer_Ionization_penalty_neutral>
0

> <s_st_Chirality_1>
1_R_4_2_3_6

> <i_mmod_Serial_Number-OPLS-2005>
844

> <i_i_glide_lignum>
832

> <r_i_docking_score>
-4.95676

> <r_i_glide_gscore>
-4.95676

> <r_i_glide_lipo>
-0.181658

> <r_i_glide_hbond>
-0.45

> <r_i_glide_metal>
0

> <r_i_glide_eburp>
-2.5

> <r_i_glide_evdw>
-11.8825

> <r_i_glide_ecoul>
-5.18298

> <r_i_glide_erotb>
0

> <r_i_glide_esite>
-0.356206

> <r_i_glide_emodel>
-20.1166

> <r_i_glide_energy>
-17.0655

> <r_i_glide_einternal>
0.434604

> <i_i_glide_confnum>
1

> <i_i_glide_posenum>
721

$$$$
C00097
                    3D
 Structure written by MMmdl.
 14 13  0  0  1  0            999 V2000
    2.5806    0.6048    4.2769 C   0  0  2  0  0  0
    1.1782    0.9400    3.7413 C   0  0  0  0  0  0
    3.6703    0.5981    3.1791 C   0  0  0  0  0  0
    0.6990    0.2455    2.8173 O   0  0  0  0  0  0
    5.3171    0.5000    3.9363 S   0  0  0  0  0  0
    2.8388    1.3573    5.0239 H   0  0  0  0  0  0
    3.5439   -0.2429    2.4957 H   0  0  0  0  0  0
    3.6260    1.5114    2.5839 H   0  0  0  0  0  0
    1.7919   -0.6455    5.6770 H   0  0  0  0  0  0
    3.3927   -0.9259    5.3656 H   0  0  0  0  0  0
    5.1109   -0.6566    4.5733 H   0  0  0  0  0  0
    2.4979   -0.6994    4.9565 N   0  3  0  0  0  0
    2.2376   -1.4067    4.2846 H   0  0  0  0  0  0
    0.5849    1.8881    4.3013 O   0  5  0  0  0  0
  1  2  1  0  0  0
  1  3  1  0  0  0
  1  6  1  0  0  0
  1 12  1  0  0  0
  2  4  2  0  0  0
  2 14  1  0  0  0
  3  5  1  0  0  0
  3  7  1  0  0  0
  3  8  1  0  0  0
  5 11  1  0  0  0
  9 12  1  0  0  0
 10 12  1  0  0  0
 12 13  1  0  0  0
M  CHG  2  12   1  14  -1
M  END
> <i_ionizer_Ion_state_n>
3

> <i_ionizer_Tot_Q>
0

> <s_ionizer_Ion_centers>
12_14

> <s_ionizer_Ion_types>
N5_OM

> <s_ionizer_Ion_ctrs_in>
4_5

> <r_ionizer_Ionization_penalty>
0.00265017

> <r_ionizer_Ionization_penalty_charging>
0.000779521

> <r_ionizer_Ionization_penalty_neutral>
0.00187065

> <s_st_Chirality_1>
1_R_12_3_2_6

> <i_mmod_Serial_Number-OPLS-2005>
69

> <i_i_glide_lignum>
68

> <r_i_docking_score>
-4.95457

> <r_i_glide_gscore>
-4.95457

> <r_i_glide_lipo>
-0.139902

> <r_i_glide_hbond>
-1.39026

> <r_i_glide_metal>
0

> <r_i_glide_eburp>
-2.5

> <r_i_glide_evdw>
-10.0795

> <r_i_glide_ecoul>
-6.47237

> <r_i_glide_erotb>
1.04496

> <r_i_glide_esite>
-0.515769

> <r_i_glide_emodel>
-34.7914

> <r_i_glide_energy>
-16.5519

> <r_i_glide_einternal>
0.293823

> <i_i_glide_confnum>
1

> <i_i_glide_posenum>
175

$$$$
C05552
                    3D
 Structure written by MMmdl.
 53 54  0  0  1  0            999 V2000
    2.6468    1.4805    2.6765 C   0  0  2  0  0  0
    2.6079    0.5713    3.8697 C   0  0  2  0  0  0
    3.0913    2.8222    3.2422 C   0  0  1  0  0  0
    1.3485    1.2041    2.1076 N   0  0  0  0  0  0
    4.0525    0.5326    4.3364 C   0  0  0  0  0  0
    1.8810   -0.5435    3.3088 N   0  0  0  0  0  0
    4.5038    2.3120    4.3059 S   0  0  0  0  0  0
    3.4924    3.8363    2.1582 C   0  0  0  0  0  0
    1.0249   -0.0749    2.3800 C   0  0  0  0  0  0
    2.6869    5.1438    2.2221 C   0  0  0  0  0  0
    0.1054   -0.7067    1.8682 O   0  0  0  0  0  0
    1.5070    5.1564    1.2395 C   0  0  0  0  0  0
    0.6639    6.4401    1.3506 C   0  0  0  0  0  0
   -0.2289    6.4733    2.5954 C   0  0  0  0  0  0
   -1.0114    7.5531    2.7335 N   0  0  0  0  0  0
   -0.2074    5.5512    3.4110 O   0  0  0  0  0  0
   -1.8547    7.8141    3.8918 C   0  0  0  0  0  0
   -3.3180    7.9965    3.4665 C   0  0  0  0  0  0
   -4.2514    8.2340    4.6622 C   0  0  0  0  0  0
   -3.7188    9.3153    5.6209 C   0  0  0  0  0  0
   -3.6626   10.7338    5.0069 C   0  0  1  0  0  0
   -3.2554   11.7975    6.0371 C   0  0  0  0  0  0
   -2.9377   12.9304    5.6098 O   0  0  0  0  0  0
    3.3895    1.1391    1.9489 H   0  0  0  0  0  0
    1.9895    0.9906    4.6687 H   0  0  0  0  0  0
    2.3047    3.2358    3.8754 H   0  0  0  0  0  0
    0.8937    1.7850    1.4186 H   0  0  0  0  0  0
    4.1628    0.1063    5.3336 H   0  0  0  0  0  0
    4.6853   -0.0233    3.6434 H   0  0  0  0  0  0
    1.8424   -1.4634    3.7227 H   0  0  0  0  0  0
    4.5582    4.0552    2.2350 H   0  0  0  0  0  0
    3.3451    3.3804    1.1784 H   0  0  0  0  0  0
    2.3146    5.2908    3.2367 H   0  0  0  0  0  0
    3.3412    5.9896    2.0084 H   0  0  0  0  0  0
    1.8846    5.0534    0.2210 H   0  0  0  0  0  0
    0.8776    4.2848    1.4257 H   0  0  0  0  0  0
    1.3172    7.3129    1.3750 H   0  0  0  0  0  0
    0.0385    6.5413    0.4623 H   0  0  0  0  0  0
   -1.0208    8.2369    1.9910 H   0  0  0  0  0  0
   -1.7698    6.9849    4.5962 H   0  0  0  0  0  0
   -1.4977    8.7097    4.4030 H   0  0  0  0  0  0
   -3.3938    8.8381    2.7766 H   0  0  0  0  0  0
   -3.6494    7.1141    2.9172 H   0  0  0  0  0  0
   -5.2379    8.5257    4.2998 H   0  0  0  0  0  0
   -4.3865    7.2940    5.1986 H   0  0  0  0  0  0
   -4.3232    9.3221    6.5296 H   0  0  0  0  0  0
   -2.7139    9.0319    5.9368 H   0  0  0  0  0  0
   -4.6413   10.9803    4.5913 H   0  0  0  0  0  0
   -2.6999   11.7100    3.4983 H   0  0  0  0  0  0
   -1.7723   10.5871    4.2671 H   0  0  0  0  0  0
   -2.6927   10.7836    3.9002 N   0  3  0  0  0  0
   -2.9372   10.1017    3.1972 H   0  0  0  0  0  0
   -3.2905   11.4643    7.2414 O   0  5  0  0  0  0
  1  2  1  0  0  0
  1  3  1  0  0  0
  1  4  1  0  0  0
  1 24  1  0  0  0
  2  5  1  0  0  0
  2  6  1  0  0  0
  2 25  1  0  0  0
  3  7  1  0  0  0
  3  8  1  0  0  0
  3 26  1  0  0  0
  4  9  1  0  0  0
  4 27  1  0  0  0
  5  7  1  0  0  0
  5 28  1  0  0  0
  5 29  1  0  0  0
  6  9  1  0  0  0
  6 30  1  0  0  0
  8 10  1  0  0  0
  8 31  1  0  0  0
  8 32  1  0  0  0
  9 11  2  0  0  0
 10 12  1  0  0  0
 10 33  1  0  0  0
 10 34  1  0  0  0
 12 13  1  0  0  0
 12 35  1  0  0  0
 12 36  1  0  0  0
 13 14  1  0  0  0
 13 37  1  0  0  0
 13 38  1  0  0  0
 14 15  1  0  0  0
 14 16  2  0  0  0
 15 17  1  0  0  0
 15 39  1  0  0  0
 17 18  1  0  0  0
 17 40  1  0  0  0
 17 41  1  0  0  0
 18 19  1  0  0  0
 18 42  1  0  0  0
 18 43  1  0  0  0
 19 20  1  0  0  0
 19 44  1  0  0  0
 19 45  1  0  0  0
 20 21  1  0  0  0
 20 46  1  0  0  0
 20 47  1  0  0  0
 21 22  1  0  0  0
 21 48  1  0  0  0
 21 51  1  0  0  0
 22 23  2  0  0  0
 22 53  1  0  0  0
 49 51  1  0  0  0
 50 51  1  0  0  0
 51 52  1  0  0  0
M  CHG  2  51   1  53  -1
M  END
> <i_ionizer_Ion_state_n>
3

> <i_ionizer_Tot_Q>
0

> <s_ionizer_Ion_centers>
51_53

> <s_ionizer_Ion_types>
N5_OM

> <s_ionizer_Ion_ctrs_in>
23_24

> <r_ionizer_Ionization_penalty>
0.000779521

> <r_ionizer_Ionization_penalty_charging>
0.000779521

> <r_ionizer_Ionization_penalty_neutral>
0

> <s_st_Chirality_1>
3_S_7_1_8_26

> <s_st_Chirality_2>
21_S_51_22_20_48

> <s_st_Chirality_3>
1_R_4_3_2_24

> <s_st_Chirality_4>
2_R_6_5_1_25

> <i_mmod_Serial_Number-OPLS-2005>
742

> <i_i_glide_lignum>
733

> <r_i_docking_score>
-4.95324

> <r_i_glide_gscore>
-4.95324

> <r_i_glide_lipo>
-0.896902

> <r_i_glide_hbond>
-0.65271

> <r_i_glide_metal>
0

> <r_i_glide_eburp>
-0.965985

> <r_i_glide_evdw>
-33.975

> <r_i_glide_ecoul>
-9.75725

> <r_i_glide_erotb>
1.59093

> <r_i_glide_esite>
-0.334845

> <r_i_glide_emodel>
-74.7812

> <r_i_glide_energy>
-43.7323

> <r_i_glide_einternal>
12.499

> <i_i_glide_confnum>
219

> <i_i_glide_posenum>
620

$$$$
C00322
                    3D
 Structure written by MMmdl.
 17 16  0  0  1  0            999 V2000
    2.4323    2.1261    3.2574 C   0  0  0  0  0  0
    2.7104    0.6332    3.0183 C   0  0  0  0  0  0
    1.9831    2.8868    1.9952 C   0  0  0  0  0  0
    1.4909   -0.2674    2.7150 C   0  0  0  0  0  0
    3.8557    0.1793    3.0672 O   0  0  0  0  0  0
    1.1469    4.1368    2.3368 C   0  0  0  0  0  0
    0.4030    0.3182    2.5141 O   0  0  0  0  0  0
   -0.1017    3.8248    3.1723 C   0  0  0  0  0  0
   -1.2276    4.1000    2.7006 O   0  0  0  0  0  0
    3.3370    2.5857    3.6573 H   0  0  0  0  0  0
    1.6661    2.2149    4.0285 H   0  0  0  0  0  0
    2.8610    3.1818    1.4175 H   0  0  0  0  0  0
    1.3993    2.2201    1.3580 H   0  0  0  0  0  0
    1.7574    4.8527    2.8880 H   0  0  0  0  0  0
    0.8294    4.6332    1.4193 H   0  0  0  0  0  0
    1.7083   -1.4999    2.6992 O   0  5  0  0  0  0
    0.0997    3.3054    4.2916 O   0  5  0  0  0  0
  1  2  1  0  0  0
  1  3  1  0  0  0
  1 10  1  0  0  0
  1 11  1  0  0  0
  2  4  1  0  0  0
  2  5  2  0  0  0
  3  6  1  0  0  0
  3 12  1  0  0  0
  3 13  1  0  0  0
  4  7  2  0  0  0
  4 16  1  0  0  0
  6  8  1  0  0  0
  6 14  1  0  0  0
  6 15  1  0  0  0
  8  9  2  0  0  0
  8 17  1  0  0  0
M  CHG  2  16  -1  17  -1
M  END
> <i_ionizer_Ion_state_n>
3

> <i_ionizer_Tot_Q>
-2

> <s_ionizer_Ion_centers>
16_17

> <s_ionizer_Ion_types>
OM_OM

> <s_ionizer_Ion_ctrs_in>
7_10

> <r_ionizer_Ionization_penalty>
0.00118438

> <r_ionizer_Ionization_penalty_charging>
0.00118438

> <r_ionizer_Ionization_penalty_neutral>
0

> <i_mmod_Serial_Number-OPLS-2005>
190

> <i_i_glide_lignum>
188

> <r_i_docking_score>
-4.93805

> <r_i_glide_gscore>
-4.93805

> <r_i_glide_lipo>
-0.188505

> <r_i_glide_hbond>
-1.72799

> <r_i_glide_metal>
0

> <r_i_glide_eburp>
-2.9

> <r_i_glide_evdw>
-12.2214

> <r_i_glide_ecoul>
-8.67391

> <r_i_glide_erotb>
2.05829

> <r_i_glide_esite>
-0.334751

> <r_i_glide_emodel>
-51.7686

> <r_i_glide_energy>
-20.8953

> <r_i_glide_einternal>
4.71979

> <i_i_glide_confnum>
1

> <i_i_glide_posenum>
373

$$$$
C00617
                    3D
 Structure written by MMmdl.
 56 58  0  0  1  0            999 V2000
   -2.1947   10.2745    6.1704 C   0  0  2  0  0  0
   -1.4677   11.5416    5.7847 N   0  0  0  0  0  0
   -1.6367    9.2075    5.4593 O   0  0  0  0  0  0
   -3.6810   10.3797    5.7990 C   0  0  1  0  0  0
   -0.5775   12.1357    6.7039 C   0  0  0  0  0  0
   -1.6839   12.1499    4.5549 C   0  0  0  0  0  0
   -2.6524    8.4947    4.7579 C   0  0  1  0  0  0
   -3.7445    9.5413    4.5324 C   0  0  1  0  0  0
   -4.5030    9.8546    6.8247 O   0  0  0  0  0  0
    0.0576   13.3112    6.3025 N   0  0  0  0  0  0
   -0.3559   11.6686    7.8200 O   0  0  0  0  0  0
   -1.0655   13.2934    4.1778 C   0  0  0  0  0  0
   -2.0690    7.9096    3.4656 C   0  0  0  0  0  0
   -5.0217    8.9717    4.3096 O   0  0  0  0  0  0
   -0.1216   13.9527    5.0741 C   0  0  0  0  0  0
   -1.0639    6.9704    3.7848 O   0  0  0  0  0  0
    0.4920   14.9875    4.8231 O   0  0  0  0  0  0
   -0.5466    5.8183    2.6494 P   0  0  0  0  0  0
    0.9608    5.2869    3.2362 O   0  0  0  0  0  0
   -1.4878    4.6759    2.6988 O   0  0  0  0  0  0
    2.2371    4.3649    2.5952 P   0  0  0  0  0  0
    1.5769    2.7957    2.6166 O   0  0  0  0  0  0
    2.4718    4.7958    1.1993 O   0  0  0  0  0  0
    2.1239    1.7033    1.8952 C   0  0  1  0  0  0
    3.4627    1.4380    2.3024 O   0  0  0  0  0  0
    1.3376    0.4035    2.1699 C   0  0  1  0  0  0
    3.6289    1.2447    3.7160 C   0  0  1  0  0  0
    1.2989    0.1477    3.6816 C   0  0  2  0  0  0
    0.0502    0.4297    1.5960 O   0  0  0  0  0  0
    2.7433    0.0636    4.2226 C   0  0  1  0  0  0
    5.1198    1.0720    4.0634 C   0  0  0  0  0  0
    0.5877   -1.0399    3.9909 O   0  0  0  0  0  0
    3.3169   -1.1965    3.9023 O   0  0  0  0  0  0
    5.7452    0.1300    3.5261 O   0  0  0  0  0  0
   -2.0183   10.1209    7.2360 H   0  0  0  0  0  0
   -3.9735   11.4146    5.6150 H   0  0  0  0  0  0
   -2.3749   11.7051    3.8547 H   0  0  0  0  0  0
   -3.0289    7.7001    5.4043 H   0  0  0  0  0  0
   -3.4830   10.1665    3.6803 H   0  0  0  0  0  0
   -4.4409   10.4418    7.5641 H   0  0  0  0  0  0
    0.6965   13.7374    6.9569 H   0  0  0  0  0  0
   -1.2717   13.7223    3.2077 H   0  0  0  0  0  0
   -2.8473    7.4102    2.8886 H   0  0  0  0  0  0
   -1.6582    8.6999    2.8369 H   0  0  0  0  0  0
   -5.3288    9.2873    3.4706 H   0  0  0  0  0  0
    2.1303    1.9265    0.8276 H   0  0  0  0  0  0
    1.8576   -0.4228    1.6831 H   0  0  0  0  0  0
    3.3092    2.1578    4.2201 H   0  0  0  0  0  0
    0.7785    0.9726    4.1704 H   0  0  0  0  0  0
    0.1517    0.5713    0.6668 H   0  0  0  0  0  0
    2.7010    0.1052    5.3119 H   0  0  0  0  0  0
    0.7182   -1.2326    4.9071 H   0  0  0  0  0  0
    3.8950   -1.4400    4.6092 H   0  0  0  0  0  0
   -0.3325    6.5272    1.3675 O   0  5  0  0  0  0
    3.3585    4.4037    3.5612 O   0  5  0  0  0  0
    5.6235    1.9097    4.8455 O   0  5  0  0  0  0
  1  2  1  0  0  0
  1  3  1  0  0  0
  1  4  1  0  0  0
  1 35  1  0  0  0
  2  5  1  0  0  0
  2  6  1  0  0  0
  3  7  1  0  0  0
  4  8  1  0  0  0
  4  9  1  0  0  0
  4 36  1  0  0  0
  5 10  1  0  0  0
  5 11  2  0  0  0
  6 12  2  0  0  0
  6 37  1  0  0  0
  7 13  1  0  0  0
  7  8  1  0  0  0
  7 38  1  0  0  0
  8 14  1  0  0  0
  8 39  1  0  0  0
  9 40  1  0  0  0
 10 15  1  0  0  0
 10 41  1  0  0  0
 12 15  1  0  0  0
 12 42  1  0  0  0
 13 16  1  0  0  0
 13 43  1  0  0  0
 13 44  1  0  0  0
 14 45  1  0  0  0
 15 17  2  0  0  0
 16 18  1  0  0  0
 18 19  1  0  0  0
 18 20  2  0  0  0
 18 54  1  0  0  0
 19 21  1  0  0  0
 21 22  1  0  0  0
 21 23  2  0  0  0
 21 55  1  0  0  0
 22 24  1  0  0  0
 24 25  1  0  0  0
 24 26  1  0  0  0
 24 46  1  0  0  0
 25 27  1  0  0  0
 26 28  1  0  0  0
 26 29  1  0  0  0
 26 47  1  0  0  0
 27 30  1  0  0  0
 27 31  1  0  0  0
 27 48  1  0  0  0
 28 32  1  0  0  0
 28 30  1  0  0  0
 28 49  1  0  0  0
 29 50  1  0  0  0
 30 33  1  0  0  0
 30 51  1  0  0  0
 31 34  2  0  0  0
 31 56  1  0  0  0
 32 52  1  0  0  0
 33 53  1  0  0  0
M  CHG  3  54  -1  55  -1  56  -1
M  END
> <i_ionizer_Ion_state_n>
7

> <i_ionizer_Tot_Q>
-3

> <s_ionizer_Ion_centers>
54_55_56

> <s_ionizer_Ion_types>
OM_OM_OM

> <s_ionizer_Ion_ctrs_in>
20_24_36

> <r_ionizer_Ionization_penalty>
0.000607108

> <r_ionizer_Ionization_penalty_charging>
0.000607108

> <r_ionizer_Ionization_penalty_neutral>
0

> <s_st_Chirality_1>
4_R_9_1_8_36

> <s_st_Chirality_2>
7_R_3_8_13_38

> <s_st_Chirality_3>
8_R_14_4_7_39

> <s_st_Chirality_4>
26_R_29_24_28_47

> <s_st_Chirality_5>
27_S_25_31_30_48

> <s_st_Chirality_6>
28_S_32_26_30_49

> <s_st_Chirality_7>
30_R_33_27_28_51

> <s_st_Chirality_8>
1_R_3_2_4_35

> <s_st_Chirality_9>
24_R_22_25_26_46

> <i_mmod_Serial_Number-OPLS-2005>
294

> <i_i_glide_lignum>
292

> <r_i_docking_score>
-4.92995

> <r_i_glide_gscore>
-4.92995

> <r_i_glide_lipo>
-0.748034

> <r_i_glide_hbond>
-1.4678

> <r_i_glide_metal>
0

> <r_i_glide_eburp>
7.28584e-17

> <r_i_glide_evdw>
-30.0036

> <r_i_glide_ecoul>
-12.001

> <r_i_glide_erotb>
0.462264

> <r_i_glide_esite>
0.424015

> <r_i_glide_emodel>
-89.8806

> <r_i_glide_energy>
-42.0046

> <r_i_glide_einternal>
6.60534

> <i_i_glide_confnum>
83

> <i_i_glide_posenum>
973

$$$$
C00301
                    3D
 Structure written by MMmdl.
 58 61  0  0  1  0            999 V2000
   -2.6320   12.0737    4.4373 N   0  3  0  0  0  0
   -1.7458   13.0101    4.0333 C   0  0  0  0  0  0
   -2.3368   10.8878    5.3010 C   0  0  2  0  0  0
   -3.8030   12.4863    3.8910 C   0  0  0  0  0  0
   -2.3720   14.0061    3.2527 C   0  0  0  0  0  0
   -0.4015   13.1242    4.2712 N   0  0  0  0  0  0
   -1.6836    9.9321    4.5124 O   0  0  0  0  0  0
   -3.6569   10.2657    5.7684 C   0  0  1  0  0  0
   -3.7228   13.6194    3.1894 N   0  0  0  0  0  0
   -1.6144   15.0614    2.7567 C   0  0  0  0  0  0
    0.2412   14.1735    3.7501 C   0  0  0  0  0  0
   -2.5081    8.7821    4.3091 C   0  0  1  0  0  0
   -3.9193    9.2507    4.6700 C   0  0  1  0  0  0
   -3.5155    9.6709    7.0437 O   0  0  0  0  0  0
   -0.2926   15.1459    3.0064 N   0  0  0  0  0  0
   -2.1640   16.0311    2.0140 N   0  0  0  0  0  0
   -2.3551    8.2694    2.8707 C   0  0  0  0  0  0
   -4.7670    8.2033    5.1007 O   0  0  0  0  0  0
   -1.2582    7.3839    2.7991 O   0  0  0  0  0  0
   -1.1852    6.1641    1.6178 P   0  0  0  0  0  0
    0.2499    5.3118    1.9496 O   0  0  0  0  0  0
   -2.3248    5.2446    1.8381 O   0  0  0  0  0  0
    0.8374    4.3784    3.2444 P   0  0  0  0  0  0
    2.2081    3.5935    2.6178 O   0  0  0  0  0  0
    1.2991    5.2985    4.3092 O   0  0  0  0  0  0
    3.0374    2.7899    3.4331 C   0  0  0  0  0  0
    4.0546    2.0513    2.5526 C   0  0  2  0  0  0
    3.4064    1.0984    1.5357 C   0  0  2  0  0  0
    4.8838    1.2244    3.3725 O   0  0  0  0  0  0
    4.2664   -0.1584    1.6187 C   0  0  2  0  0  0
    3.3378    1.6319    0.2268 O   0  0  0  0  0  0
    4.6950   -0.1251    3.0843 C   0  0  2  0  0  0
    5.3898   -0.1248    0.7560 O   0  0  0  0  0  0
    3.6858   -0.6881    3.8946 O   0  0  0  0  0  0
   -1.7058   11.2791    6.1006 H   0  0  0  0  0  0
   -4.7269   11.9526    4.0212 H   0  0  0  0  0  0
   -4.4515   11.0107    5.8301 H   0  0  0  0  0  0
   -4.4970   14.0855    2.7333 H   0  0  0  0  0  0
    1.3000   14.2419    3.9507 H   0  0  0  0  0  0
   -2.1896    8.0141    5.0158 H   0  0  0  0  0  0
   -4.3765    9.7545    3.8188 H   0  0  0  0  0  0
   -3.2635   10.3540    7.6483 H   0  0  0  0  0  0
   -1.6084   16.8054    1.6801 H   0  0  0  0  0  0
   -3.1525   16.0554    1.8122 H   0  0  0  0  0  0
   -3.2541    7.7474    2.5481 H   0  0  0  0  0  0
   -2.2030    9.0999    2.1809 H   0  0  0  0  0  0
   -5.5947    8.5871    5.3553 H   0  0  0  0  0  0
    3.5354    3.4136    4.1758 H   0  0  0  0  0  0
    2.4244    2.0669    3.9730 H   0  0  0  0  0  0
    4.7005    2.7668    2.0418 H   0  0  0  0  0  0
    2.3952    0.8476    1.8599 H   0  0  0  0  0  0
    3.6985   -1.0647    1.4032 H   0  0  0  0  0  0
    3.0409    0.9534   -0.3589 H   0  0  0  0  0  0
    5.6130   -0.6812    3.2779 H   0  0  0  0  0  0
    5.0943   -0.2462   -0.1330 H   0  0  0  0  0  0
    4.1033   -1.1379    4.6130 H   0  0  0  0  0  0
   -1.0331    6.8292    0.3053 O   0  5  0  0  0  0
   -0.1770    3.3506    3.5706 O   0  5  0  0  0  0
  1  2  1  0  0  0
  1  3  1  0  0  0
  1  4  2  0  0  0
  2  5  1  0  0  0
  2  6  2  0  0  0
  3  7  1  0  0  0
  3  8  1  0  0  0
  3 35  1  0  0  0
  4  9  1  0  0  0
  4 36  1  0  0  0
  5 10  2  0  0  0
  5  9  1  0  0  0
  6 11  1  0  0  0
  7 12  1  0  0  0
  8 13  1  0  0  0
  8 14  1  0  0  0
  8 37  1  0  0  0
  9 38  1  0  0  0
 10 15  1  0  0  0
 10 16  1  0  0  0
 11 15  2  0  0  0
 11 39  1  0  0  0
 12 17  1  0  0  0
 12 13  1  0  0  0
 12 40  1  0  0  0
 13 18  1  0  0  0
 13 41  1  0  0  0
 14 42  1  0  0  0
 16 43  1  0  0  0
 16 44  1  0  0  0
 17 19  1  0  0  0
 17 45  1  0  0  0
 17 46  1  0  0  0
 18 47  1  0  0  0
 19 20  1  0  0  0
 20 21  1  0  0  0
 20 22  2  0  0  0
 20 57  1  0  0  0
 21 23  1  0  0  0
 23 24  1  0  0  0
 23 25  2  0  0  0
 23 58  1  0  0  0
 24 26  1  0  0  0
 26 27  1  0  0  0
 26 48  1  0  0  0
 26 49  1  0  0  0
 27 28  1  0  0  0
 27 29  1  0  0  0
 27 50  1  0  0  0
 28 30  1  0  0  0
 28 31  1  0  0  0
 28 51  1  0  0  0
 29 32  1  0  0  0
 30 33  1  0  0  0
 30 32  1  0  0  0
 30 52  1  0  0  0
 31 53  1  0  0  0
 32 34  1  0  0  0
 32 54  1  0  0  0
 33 55  1  0  0  0
 34 56  1  0  0  0
M  CHG  3   1   1  57  -1  58  -1
M  END
> <i_ionizer_Ion_state_n>
3

> <i_ionizer_Tot_Q>
-1

> <s_ionizer_Ion_centers>
57_58

> <s_ionizer_Ion_types>
OM_OM

> <s_ionizer_Ion_ctrs_in>
22_26

> <r_ionizer_Ionization_penalty>
1.49178e-05

> <r_ionizer_Ionization_penalty_charging>
1.49178e-05

> <r_ionizer_Ionization_penalty_neutral>
0

> <s_st_Chirality_1>
3_R_7_1_8_35

> <s_st_Chirality_2>
8_R_14_3_13_37

> <s_st_Chirality_3>
12_R_7_13_17_40

> <s_st_Chirality_4>
13_R_18_8_12_41

> <s_st_Chirality_5>
27_R_29_28_26_50

> <s_st_Chirality_6>
28_R_31_30_27_51

> <s_st_Chirality_7>
30_R_33_32_28_52

> <s_st_Chirality_8>
32_R_29_34_30_54

> <i_mmod_Serial_Number-OPLS-2005>
184

> <i_i_glide_lignum>
182

> <r_i_docking_score>
-4.92181

> <r_i_glide_gscore>
-4.92181

> <r_i_glide_lipo>
-0.586056

> <r_i_glide_hbond>
-1.33277

> <r_i_glide_metal>
0

> <r_i_glide_eburp>
1.19262e-17

> <r_i_glide_evdw>
-36.2554

> <r_i_glide_ecoul>
-15.2378

> <r_i_glide_erotb>
0.596776

> <r_i_glide_esite>
0.824461

> <r_i_glide_emodel>
-105.672

> <r_i_glide_energy>
-51.4933

> <r_i_glide_einternal>
8.38766

> <i_i_glide_confnum>
327

> <i_i_glide_posenum>
607

$$$$
C05947
                    3D
 Structure written by MMmdl.
 19 18  0  0  1  0            999 V2000
    2.7693    0.3762    3.8901 C   0  0  2  0  0  0
    1.6844   -0.6997    3.7462 C   0  0  0  0  0  0
    2.6847    1.4166    2.7486 C   0  0  0  0  0  0
    0.8387   -0.7993    4.6639 O   0  0  0  0  0  0
    1.2399    1.8818    2.4436 C   0  0  2  0  0  0
    0.5117    2.4242    3.6860 C   0  0  0  0  0  0
    0.4870    0.8120    1.9031 O   0  0  0  0  0  0
   -0.0488    3.5402    3.6143 O   0  0  0  0  0  0
    2.6424    0.8831    4.8484 H   0  0  0  0  0  0
    3.3183    2.2772    2.9720 H   0  0  0  0  0  0
    3.1005    0.9679    1.8440 H   0  0  0  0  0  0
    4.1291   -0.9221    4.6887 H   0  0  0  0  0  0
    4.1813   -0.8186    3.0428 H   0  0  0  0  0  0
    1.2631    2.6859    1.7073 H   0  0  0  0  0  0
    0.9474    0.5179    1.1292 H   0  0  0  0  0  0
    4.0799   -0.2941    3.8999 N   0  3  0  0  0  0
    4.8074    0.4047    3.9623 H   0  0  0  0  0  0
    1.7009   -1.3895    2.7035 O   0  5  0  0  0  0
    0.5178    1.6892    4.6991 O   0  5  0  0  0  0
  1  2  1  0  0  0
  1  3  1  0  0  0
  1  9  1  0  0  0
  1 16  1  0  0  0
  2  4  2  0  0  0
  2 18  1  0  0  0
  3  5  1  0  0  0
  3 10  1  0  0  0
  3 11  1  0  0  0
  5  6  1  0  0  0
  5  7  1  0  0  0
  5 14  1  0  0  0
  6  8  2  0  0  0
  6 19  1  0  0  0
  7 15  1  0  0  0
 12 16  1  0  0  0
 13 16  1  0  0  0
 16 17  1  0  0  0
M  CHG  3  16   1  18  -1  19  -1
M  END
> <i_ionizer_Ion_state_n>
7

> <i_ionizer_Tot_Q>
-1

> <s_ionizer_Ion_centers>
16_18_19

> <s_ionizer_Ion_types>
N5_OM_OM

> <s_ionizer_Ion_ctrs_in>
4_5_10

> <r_ionizer_Ionization_penalty>
0.00137171

> <r_ionizer_Ionization_penalty_charging>
0.00137171

> <r_ionizer_Ionization_penalty_neutral>
0

> <s_st_Chirality_1>
1_S_16_2_3_9

> <s_st_Chirality_2>
5_R_7_6_3_14

> <i_mmod_Serial_Number-OPLS-2005>
834

> <i_i_glide_lignum>
822

> <r_i_docking_score>
-4.91914

> <r_i_glide_gscore>
-4.91914

> <r_i_glide_lipo>
-0.19352

> <r_i_glide_hbond>
-1.53427

> <r_i_glide_metal>
0

> <r_i_glide_eburp>
-2.5

> <r_i_glide_evdw>
-10.8975

> <r_i_glide_ecoul>
-9.67013

> <r_i_glide_erotb>
1.31776

> <r_i_glide_esite>
-0.170304

> <r_i_glide_emodel>
-51.7707

> <r_i_glide_energy>
-20.5677

> <r_i_glide_einternal>
3.15679

> <i_i_glide_confnum>
1

> <i_i_glide_posenum>
72

$$$$
C00334
                    3D
 Structure written by MMmdl.
 16 15  0  0  1  0            999 V2000
    0.3270    2.0676    2.8117 C   0  0  0  0  0  0
   -0.2982    3.4233    3.1624 C   0  0  0  0  0  0
    1.1456    1.4631    3.9689 C   0  0  0  0  0  0
   -1.4278    3.7000    2.7006 O   0  0  0  0  0  0
    1.6799    0.0652    3.6352 C   0  0  0  0  0  0
    0.9611    2.1996    1.9343 H   0  0  0  0  0  0
   -0.4736    1.3855    2.5239 H   0  0  0  0  0  0
    1.9827    2.1212    4.2082 H   0  0  0  0  0  0
    0.5260    1.4074    4.8657 H   0  0  0  0  0  0
    0.8545   -0.6355    3.5050 H   0  0  0  0  0  0
    2.2371    0.0856    2.6979 H   0  0  0  0  0  0
    2.9010   -1.3546    4.4585 H   0  0  0  0  0  0
    3.3461    0.1942    4.8116 H   0  0  0  0  0  0
    0.3809    4.1694    3.9000 O   0  5  0  0  0  0
    2.5631   -0.4344    4.7018 N   0  3  0  0  0  0
    2.0479   -0.4829    5.5693 H   0  0  0  0  0  0
  1  2  1  0  0  0
  1  3  1  0  0  0
  1  6  1  0  0  0
  1  7  1  0  0  0
  2  4  2  0  0  0
  2 14  1  0  0  0
  3  5  1  0  0  0
  3  8  1  0  0  0
  3  9  1  0  0  0
  5 10  1  0  0  0
  5 11  1  0  0  0
  5 15  1  0  0  0
 12 15  1  0  0  0
 13 15  1  0  0  0
 15 16  1  0  0  0
M  CHG  2  14  -1  15   1
M  END
> <i_ionizer_Ion_state_n>
3

> <i_ionizer_Tot_Q>
0

> <s_ionizer_Ion_centers>
14_15

> <s_ionizer_Ion_types>
OM_N5

> <s_ionizer_Ion_ctrs_in>
4_7

> <r_ionizer_Ionization_penalty>
0.000779521

> <r_ionizer_Ionization_penalty_charging>
0.000779521

> <r_ionizer_Ionization_penalty_neutral>
0

> <i_mmod_Serial_Number-OPLS-2005>
197

> <i_i_glide_lignum>
195

> <r_i_docking_score>
-4.9113

> <r_i_glide_gscore>
-4.9113

> <r_i_glide_lipo>
-0.280511

> <r_i_glide_hbond>
-1.72679

> <r_i_glide_metal>
0

> <r_i_glide_eburp>
-2.9

> <r_i_glide_evdw>
-6.85391

> <r_i_glide_ecoul>
-6.10586

> <r_i_glide_erotb>
1.33675

> <r_i_glide_esite>
-0.181854

> <r_i_glide_emodel>
-38.6841

> <r_i_glide_energy>
-12.9598

> <r_i_glide_einternal>
2.93917

> <i_i_glide_confnum>
2

> <i_i_glide_posenum>
349

$$$$
C00487
                    3D
 Structure written by MMmdl.
 26 25  0  0  1  0            999 V2000
    2.7112    0.9660    2.2124 C   0  0  0  0  0  0
    4.0578    0.6695    2.8015 N   0  3  0  0  0  0
    1.6499    1.5761    3.1659 C   0  0  1  0  0  0
    3.8868   -0.3951    3.8255 C   0  0  0  0  0  0
    4.9969    0.1666    1.7627 C   0  0  0  0  0  0
    4.6460    1.8625    3.4650 C   0  0  0  0  0  0
    0.5182    2.2738    2.3698 C   0  0  0  0  0  0
    1.0980    0.5497    3.9718 O   0  0  0  0  0  0
   -0.2976    3.3002    3.1723 C   0  0  0  0  0  0
   -1.3853    3.7010    2.7003 O   0  0  0  0  0  0
    2.8680    1.6561    1.3813 H   0  0  0  0  0  0
    2.2976    0.0637    1.7576 H   0  0  0  0  0  0
    2.0958    2.3186    3.8258 H   0  0  0  0  0  0
    4.8397   -0.6668    4.2826 H   0  0  0  0  0  0
    3.2209   -0.0711    4.6269 H   0  0  0  0  0  0
    3.4628   -1.3007    3.3886 H   0  0  0  0  0  0
    5.9383   -0.1543    2.2114 H   0  0  0  0  0  0
    4.5791   -0.6898    1.2314 H   0  0  0  0  0  0
    5.2466    0.9275    1.0242 H   0  0  0  0  0  0
    5.5671    1.6062    3.9908 H   0  0  0  0  0  0
    4.8991    2.6423    2.7461 H   0  0  0  0  0  0
    3.9552    2.2875    4.1948 H   0  0  0  0  0  0
    0.9375    2.7866    1.5036 H   0  0  0  0  0  0
   -0.1730    1.5245    1.9814 H   0  0  0  0  0  0
    1.8211    0.0918    4.3808 H   0  0  0  0  0  0
    0.1888    3.6605    4.2656 O   0  5  0  0  0  0
  1  2  1  0  0  0
  1  3  1  0  0  0
  1 11  1  0  0  0
  1 12  1  0  0  0
  2  4  1  0  0  0
  2  5  1  0  0  0
  2  6  1  0  0  0
  3  7  1  0  0  0
  3  8  1  0  0  0
  3 13  1  0  0  0
  4 14  1  0  0  0
  4 15  1  0  0  0
  4 16  1  0  0  0
  5 17  1  0  0  0
  5 18  1  0  0  0
  5 19  1  0  0  0
  6 20  1  0  0  0
  6 21  1  0  0  0
  6 22  1  0  0  0
  7  9  1  0  0  0
  7 23  1  0  0  0
  7 24  1  0  0  0
  8 25  1  0  0  0
  9 10  2  0  0  0
  9 26  1  0  0  0
M  CHG  2   2   1  26  -1
M  END
> <i_ionizer_Ion_state_n>
1

> <i_ionizer_Tot_Q>
0

> <s_ionizer_Ion_centers>
26

> <s_ionizer_Ion_types>
OM

> <s_ionizer_Ion_ctrs_in>
10

> <r_ionizer_Ionization_penalty>
0.00059219

> <r_ionizer_Ionization_penalty_charging>
0.00059219

> <r_ionizer_Ionization_penalty_neutral>
0

> <s_st_Chirality_1>
3_R_8_1_7_13

> <i_mmod_Serial_Number-OPLS-2005>
256

> <i_i_glide_lignum>
254

> <r_i_docking_score>
-4.91057

> <r_i_glide_gscore>
-4.91057

> <r_i_glide_lipo>
-0.454887

> <r_i_glide_hbond>
-1.4

> <r_i_glide_metal>
0

> <r_i_glide_eburp>
-2.9

> <r_i_glide_evdw>
-9.40581

> <r_i_glide_ecoul>
-9.14262

> <r_i_glide_erotb>
1.32996

> <r_i_glide_esite>
0.181078

> <r_i_glide_emodel>
-40.1187

> <r_i_glide_energy>
-18.5484

> <r_i_glide_einternal>
6.46653

> <i_i_glide_confnum>
4

> <i_i_glide_posenum>
226

$$$$
C00345
                    3D
 Structure written by MMmdl.
 27 26  0  0  1  0            999 V2000
    0.1587    4.3776    3.0212 P   0  0  0  0  0  0
    0.4982    3.1736    4.2998 O   0  0  0  0  0  0
   -1.3270    4.0976    2.7022 O   0  0  0  0  0  0
    0.4811    1.8280    3.8575 C   0  0  0  0  0  0
    1.8562    1.4664    3.2630 C   0  0  2  0  0  0
    1.9290    0.0058    2.7436 C   0  0  2  0  0  0
    2.8067    1.6325    4.2986 O   0  0  0  0  0  0
    3.3226   -0.4288    2.2071 C   0  0  1  0  0  0
    0.9673   -0.1753    1.7210 O   0  0  0  0  0  0
    3.6850    0.0818    0.7769 C   0  0  2  0  0  0
    4.3467   -0.1851    3.1577 O   0  0  0  0  0  0
    4.3251    1.4847    0.7469 C   0  0  0  0  0  0
    2.5633    0.0714   -0.0877 O   0  0  0  0  0  0
    3.9876    2.3139    1.6215 O   0  0  0  0  0  0
    0.2050    1.1423    4.6603 H   0  0  0  0  0  0
   -0.3000    1.7564    3.1008 H   0  0  0  0  0  0
    2.0933    2.1550    2.4508 H   0  0  0  0  0  0
    1.6595   -0.6640    3.5614 H   0  0  0  0  0  0
    3.6444    1.3327    3.9816 H   0  0  0  0  0  0
    3.2948   -1.5147    2.1131 H   0  0  0  0  0  0
    1.2151    0.3879    0.9996 H   0  0  0  0  0  0
    4.4147   -0.6033    0.3442 H   0  0  0  0  0  0
    4.1517   -0.7081    3.9233 H   0  0  0  0  0  0
    1.9629    0.7290    0.2338 H   0  0  0  0  0  0
    0.4506    5.7031    3.7588 O   0  5  0  0  0  0
    1.1729    3.9810    1.9245 O   0  5  0  0  0  0
    5.1723    1.6970   -0.1500 O   0  5  0  0  0  0
  1  2  1  0  0  0
  1  3  2  0  0  0
  1 25  1  0  0  0
  1 26  1  0  0  0
  2  4  1  0  0  0
  4  5  1  0  0  0
  4 15  1  0  0  0
  4 16  1  0  0  0
  5  6  1  0  0  0
  5  7  1  0  0  0
  5 17  1  0  0  0
  6  8  1  0  0  0
  6  9  1  0  0  0
  6 18  1  0  0  0
  7 19  1  0  0  0
  8 10  1  0  0  0
  8 11  1  0  0  0
  8 20  1  0  0  0
  9 21  1  0  0  0
 10 12  1  0  0  0
 10 13  1  0  0  0
 10 22  1  0  0  0
 11 23  1  0  0  0
 12 14  2  0  0  0
 12 27  1  0  0  0
 13 24  1  0  0  0
M  CHG  3  25  -1  26  -1  27  -1
M  END
> <i_ionizer_Ion_state_n>
7

> <i_ionizer_Tot_Q>
-3

> <s_ionizer_Ion_centers>
25_26_27

> <s_ionizer_Ion_types>
OM_OM_OM

> <s_ionizer_Ion_ctrs_in>
3_4_16

> <r_ionizer_Ionization_penalty>
0.000607108

> <r_ionizer_Ionization_penalty_charging>
0.000607108

> <r_ionizer_Ionization_penalty_neutral>
0

> <s_st_Chirality_1>
5_R_7_6_4_17

> <s_st_Chirality_2>
6_R_9_8_5_18

> <s_st_Chirality_3>
8_S_11_10_6_20

> <s_st_Chirality_4>
10_R_13_12_8_22

> <i_mmod_Serial_Number-OPLS-2005>
200

> <i_i_glide_lignum>
198

> <r_i_docking_score>
-4.90728

> <r_i_glide_gscore>
-4.90728

> <r_i_glide_lipo>
-0.46335

> <r_i_glide_hbond>
-1.39551

> <r_i_glide_metal>
0

> <r_i_glide_eburp>
-2.11883

> <r_i_glide_evdw>
-19.0346

> <r_i_glide_ecoul>
-7.5589

> <r_i_glide_erotb>
1.37386

> <r_i_glide_esite>
-0.0247984

> <r_i_glide_emodel>
-60.2632

> <r_i_glide_energy>
-26.5935

> <r_i_glide_einternal>
9.25449

> <i_i_glide_confnum>
14

> <i_i_glide_posenum>
966

$$$$
C00575
                    3D
 Structure written by MMmdl.
 33 36  0  0  1  0            999 V2000
    0.9308    5.6905    1.8677 N   0  0  0  0  0  0
    1.4130    4.6944    2.8725 C   0  0  1  0  0  0
   -0.2296    6.4370    1.9123 C   0  0  0  0  0  0
    1.5484    6.0617    0.6931 C   0  0  0  0  0  0
    0.4584    3.4810    2.9557 C   0  0  1  0  0  0
    2.6746    4.2300    2.4688 O   0  0  0  0  0  0
   -0.2238    7.2277    0.7302 C   0  0  0  0  0  0
   -1.2024    6.4451    2.8700 N   0  0  0  0  0  0
    0.9176    6.9611   -0.0138 N   0  0  0  0  0  0
    1.3286    2.4002    2.3523 C   0  0  1  0  0  0
    0.1540    3.1672    4.2999 O   0  0  0  0  0  0
    2.7257    2.8400    2.7542 C   0  0  1  0  0  0
   -1.3359    8.0899    0.5589 C   0  0  0  0  0  0
   -2.1822    7.3030    2.5742 C   0  0  0  0  0  0
    1.0946    1.0751    2.7714 O   0  0  0  0  0  0
    3.8101    2.0369    2.0241 C   0  0  0  0  0  0
   -2.3007    8.1003    1.5075 N   0  0  0  0  0  0
   -1.4785    8.8976   -0.5001 N   0  0  0  0  0  0
    2.1533   -0.1163    2.1801 P   0  0  0  0  0  0
    3.6492    0.6778    2.4083 O   0  0  0  0  0  0
    1.9194   -0.2780    0.7281 O   0  0  0  0  0  0
    1.4860    5.2542    3.8062 H   0  0  0  0  0  0
    2.4924    5.6433    0.3745 H   0  0  0  0  0  0
   -0.4606    3.6411    2.3902 H   0  0  0  0  0  0
    1.2325    2.4305    1.2666 H   0  0  0  0  0  0
    0.9473    2.8492    4.7060 H   0  0  0  0  0  0
    2.8611    2.7182    3.8310 H   0  0  0  0  0  0
   -2.9857    7.3598    3.2938 H   0  0  0  0  0  0
    3.7138    2.1327    0.9419 H   0  0  0  0  0  0
    4.8053    2.3821    2.3036 H   0  0  0  0  0  0
   -2.2908    9.4924   -0.5725 H   0  0  0  0  0  0
   -0.7711    8.9067   -1.2207 H   0  0  0  0  0  0
    2.0957   -1.2865    3.0826 O   0  5  0  0  0  0
  1  2  1  0  0  0
  1  3  1  0  0  0
  1  4  1  0  0  0
  2  5  1  0  0  0
  2  6  1  0  0  0
  2 22  1  0  0  0
  3  7  2  0  0  0
  3  8  1  0  0  0
  4  9  2  0  0  0
  4 23  1  0  0  0
  5 10  1  0  0  0
  5 11  1  0  0  0
  5 24  1  0  0  0
  6 12  1  0  0  0
  7 13  1  0  0  0
  7  9  1  0  0  0
  8 14  2  0  0  0
 10 15  1  0  0  0
 10 12  1  0  0  0
 10 25  1  0  0  0
 11 26  1  0  0  0
 12 16  1  0  0  0
 12 27  1  0  0  0
 13 17  2  0  0  0
 13 18  1  0  0  0
 14 17  1  0  0  0
 14 28  1  0  0  0
 15 19  1  0  0  0
 16 20  1  0  0  0
 16 29  1  0  0  0
 16 30  1  0  0  0
 18 31  1  0  0  0
 18 32  1  0  0  0
 19 21  2  0  0  0
 19 20  1  0  0  0
 19 33  1  0  0  0
M  CHG  1  33  -1
M  END
> <i_ionizer_Ion_state_n>
2

> <i_ionizer_Tot_Q>
-1

> <s_ionizer_Ion_centers>
33

> <s_ionizer_Ion_types>
OM

> <s_ionizer_Ion_ctrs_in>
21

> <r_ionizer_Ionization_penalty>
2.61947e-05

> <r_ionizer_Ionization_penalty_charging>
7.45891e-06

> <r_ionizer_Ionization_penalty_neutral>
1.87357e-05

> <s_st_Chirality_1>
2_R_6_1_5_22

> <s_st_Chirality_2>
5_R_11_2_10_24

> <s_st_Chirality_3>
10_R_15_5_12_25

> <s_st_Chirality_4>
12_R_6_10_16_27

> <i_mmod_Serial_Number-OPLS-2005>
282

> <i_i_glide_lignum>
280

> <r_i_docking_score>
-4.90151

> <r_i_glide_gscore>
-4.90151

> <r_i_glide_lipo>
-0.529073

> <r_i_glide_hbond>
-0.652468

> <r_i_glide_metal>
0

> <r_i_glide_eburp>
-1.30149

> <r_i_glide_evdw>
-30.5458

> <r_i_glide_ecoul>
-2.73099

> <r_i_glide_erotb>
0.199235

> <r_i_glide_esite>
0.0990533

> <r_i_glide_emodel>
-54.9326

> <r_i_glide_energy>
-33.2768

> <r_i_glide_einternal>
2.75261

> <i_i_glide_confnum>
1

> <i_i_glide_posenum>
170

$$$$
C00504
                    3D
 Structure written by MMmdl.
 49 51  0  0  1  0            999 V2000
    1.3268    2.3626    3.4300 C   0  0  0  0  0  0
    2.3857    2.5818    2.5098 C   0  0  0  0  0  0
    0.2678    3.2022    3.4848 N   0  0  0  0  0  0
    1.3369    1.2707    4.3152 N   0  0  0  0  0  0
    2.3875    3.6288    1.6529 N   0  0  0  0  0  0
    3.5306    1.6109    2.5020 C   0  0  0  0  0  0
    0.2689    4.2485    2.6289 C   0  0  0  0  0  0
    2.3482    0.4561    4.2730 C   0  0  0  0  0  0
    1.3231    4.4650    1.7140 C   0  0  0  0  0  0
    3.4293    0.6061    3.3940 N   0  0  0  0  0  0
    4.4858    1.7305    1.7357 O   0  0  0  0  0  0
    2.4873   -0.6526    5.0814 N   0  0  0  0  0  0
    1.2861    5.6564    0.7675 C   0  0  0  0  0  0
   -0.0392    6.2040    0.5123 N   0  0  0  0  0  0
   -0.8586    6.8188    1.3870 C   0  0  0  0  0  0
   -0.4938    6.8555    2.7479 C   0  0  0  0  0  0
   -2.0699    7.4219    0.9810 C   0  0  0  0  0  0
   -1.3242    7.4889    3.6926 C   0  0  0  0  0  0
   -2.9007    8.0559    1.9255 C   0  0  0  0  0  0
   -2.5298    8.1040    3.2893 C   0  0  0  0  0  0
   -3.4157    8.7582    4.3116 C   0  0  0  0  0  0
   -4.0238    9.8854    3.9100 N   0  0  0  0  0  0
   -3.5142    8.2967    5.4487 O   0  0  0  0  0  0
   -4.7165   10.8440    4.7659 C   0  0  1  0  0  0
   -5.3997   11.9431    3.9123 C   0  0  0  0  0  0
   -5.6271   10.0870    5.7410 C   0  0  0  0  0  0
   -6.6627   11.5223    3.1238 C   0  0  0  0  0  0
   -5.1244    9.6843    6.8128 O   0  0  0  0  0  0
   -7.4881   12.6872    2.5641 C   0  0  0  0  0  0
   -7.0549   13.8496    2.7274 O   0  0  0  0  0  0
   -0.5779    4.9174    2.6752 H   0  0  0  0  0  0
    4.1793   -0.0680    3.4198 H   0  0  0  0  0  0
    1.8013   -0.9140    5.7749 H   0  0  0  0  0  0
    3.2732   -1.2853    5.0481 H   0  0  0  0  0  0
    1.9184    6.4424    1.1821 H   0  0  0  0  0  0
    1.7311    5.3530   -0.1810 H   0  0  0  0  0  0
   -0.3653    6.1025   -0.4391 H   0  0  0  0  0  0
    0.4268    6.3957    3.0773 H   0  0  0  0  0  0
   -2.3789    7.4043   -0.0534 H   0  0  0  0  0  0
   -1.0259    7.5028    4.7311 H   0  0  0  0  0  0
   -3.8270    8.4992    1.5893 H   0  0  0  0  0  0
   -4.0291   10.1000    2.9234 H   0  0  0  0  0  0
   -3.9638   11.3367    5.3850 H   0  0  0  0  0  0
   -5.6378   12.7984    4.5462 H   0  0  0  0  0  0
   -4.6732   12.3170    3.1898 H   0  0  0  0  0  0
   -6.3611   10.9063    2.2766 H   0  0  0  0  0  0
   -7.3046   10.8904    3.7383 H   0  0  0  0  0  0
   -6.8111    9.9003    5.3806 O   0  5  0  0  0  0
   -8.5326   12.3878    1.9454 O   0  5  0  0  0  0
  1  2  2  0  0  0
  1  3  1  0  0  0
  1  4  1  0  0  0
  2  5  1  0  0  0
  2  6  1  0  0  0
  3  7  2  0  0  0
  4  8  2  0  0  0
  5  9  2  0  0  0
  6 10  1  0  0  0
  6 11  2  0  0  0
  7  9  1  0  0  0
  7 31  1  0  0  0
  8 12  1  0  0  0
  8 10  1  0  0  0
  9 13  1  0  0  0
 10 32  1  0  0  0
 12 33  1  0  0  0
 12 34  1  0  0  0
 13 14  1  0  0  0
 13 35  1  0  0  0
 13 36  1  0  0  0
 14 15  1  0  0  0
 14 37  1  0  0  0
 15 16  2  0  0  0
 15 17  1  0  0  0
 16 18  1  0  0  0
 16 38  1  0  0  0
 17 19  2  0  0  0
 17 39  1  0  0  0
 18 20  2  0  0  0
 18 40  1  0  0  0
 19 20  1  0  0  0
 19 41  1  0  0  0
 20 21  1  0  0  0
 21 22  1  0  0  0
 21 23  2  0  0  0
 22 24  1  0  0  0
 22 42  1  0  0  0
 24 25  1  0  0  0
 24 26  1  0  0  0
 24 43  1  0  0  0
 25 27  1  0  0  0
 25 44  1  0  0  0
 25 45  1  0  0  0
 26 28  2  0  0  0
 26 48  1  0  0  0
 27 29  1  0  0  0
 27 46  1  0  0  0
 27 47  1  0  0  0
 29 30  2  0  0  0
 29 49  1  0  0  0
M  CHG  2  48  -1  49  -1
M  END
> <i_ionizer_Ion_state_n>
6

> <i_ionizer_Tot_Q>
-2

> <s_ionizer_Ion_centers>
48_49

> <s_ionizer_Ion_types>
OM_OM

> <s_ionizer_Ion_ctrs_in>
28_31

> <r_ionizer_Ionization_penalty>
0.00305503

> <r_ionizer_Ionization_penalty_charging>
0.00118438

> <r_ionizer_Ionization_penalty_neutral>
0.00187065

> <s_st_Chirality_1>
24_S_22_26_25_43

> <i_mmod_Serial_Number-OPLS-2005>
262

> <i_i_glide_lignum>
260

> <r_i_docking_score>
-4.89925

> <r_i_glide_gscore>
-4.89925

> <r_i_glide_lipo>
-1.05536

> <r_i_glide_hbond>
-1.34484

> <r_i_glide_metal>
0

> <r_i_glide_eburp>
-0.459162

> <r_i_glide_evdw>
-31.7969

> <r_i_glide_ecoul>
-11.2549

> <r_i_glide_erotb>
0.945135

> <r_i_glide_esite>
0.684226

> <r_i_glide_emodel>
-79.5276

> <r_i_glide_energy>
-43.0518

> <r_i_glide_einternal>
7.31823

> <i_i_glide_confnum>
85

> <i_i_glide_posenum>
870

$$$$
C03287
                    3D
 Structure written by MMmdl.
 22 21  0  0  1  0            999 V2000
    0.3661    4.6854    2.9862 P   0  0  0  0  0  0
    1.5313    3.3522    2.7225 O   0  0  0  0  0  0
    0.5629    5.5484    1.7191 O   0  0  0  0  0  0
    2.8536    3.4966    2.8557 C   0  0  0  0  0  0
    3.6221    2.4069    2.1040 C   0  0  0  0  0  0
    3.4274    4.3789    3.4960 O   0  0  0  0  0  0
    2.9188    1.0330    2.1267 C   0  0  0  0  0  0
    2.8142    0.4005    3.5333 C   0  0  1  0  0  0
    1.6994   -0.6523    3.6208 C   0  0  0  0  0  0
    0.8998   -0.5762    4.5810 O   0  0  0  0  0  0
    3.7549    2.7382    1.0736 H   0  0  0  0  0  0
    4.6179    2.3343    2.5417 H   0  0  0  0  0  0
    1.9263    1.1241    1.6813 H   0  0  0  0  0  0
    3.4706    0.3465    1.4824 H   0  0  0  0  0  0
    2.6328    1.1899    4.2650 H   0  0  0  0  0  0
    3.9989   -0.6291    4.8336 H   0  0  0  0  0  0
    4.2551   -1.0070    3.2506 H   0  0  0  0  0  0
   -0.9779    3.9309    3.0999 O   0  5  0  0  0  0
    0.8997    5.2992    4.2996 O   0  5  0  0  0  0
    4.0809   -0.2532    3.9000 N   0  3  0  0  0  0
    4.8357    0.4160    3.8626 H   0  0  0  0  0  0
    1.6457   -1.5000    2.7036 O   0  5  0  0  0  0
  1  2  1  0  0  0
  1  3  2  0  0  0
  1 18  1  0  0  0
  1 19  1  0  0  0
  2  4  1  0  0  0
  4  5  1  0  0  0
  4  6  2  0  0  0
  5  7  1  0  0  0
  5 11  1  0  0  0
  5 12  1  0  0  0
  7  8  1  0  0  0
  7 13  1  0  0  0
  7 14  1  0  0  0
  8  9  1  0  0  0
  8 15  1  0  0  0
  8 20  1  0  0  0
  9 10  2  0  0  0
  9 22  1  0  0  0
 16 20  1  0  0  0
 17 20  1  0  0  0
 20 21  1  0  0  0
M  CHG  4  18  -1  19  -1  20   1  22  -1
M  END
> <i_ionizer_Ion_state_n>
15

> <i_ionizer_Tot_Q>
-2

> <s_ionizer_Ion_centers>
18_19_20_22

> <s_ionizer_Ion_types>
OM_OM_N5_OM

> <s_ionizer_Ion_ctrs_in>
3_4_12_13

> <r_ionizer_Ionization_penalty>
0.000794438

> <r_ionizer_Ionization_penalty_charging>
0.000794438

> <r_ionizer_Ionization_penalty_neutral>
0

> <s_st_Chirality_1>
8_S_20_9_7_15

> <i_mmod_Serial_Number-OPLS-2005>
534

> <i_i_glide_lignum>
528

> <r_i_docking_score>
-4.8933

> <r_i_glide_gscore>
-4.8933

> <r_i_glide_lipo>
-0.175056

> <r_i_glide_hbond>
-1.86534

> <r_i_glide_metal>
0

> <r_i_glide_eburp>
-2.08261

> <r_i_glide_evdw>
-16.2834

> <r_i_glide_ecoul>
-6.97312

> <r_i_glide_erotb>
1.53052

> <r_i_glide_esite>
-0.300835

> <r_i_glide_emodel>
-64.411

> <r_i_glide_energy>
-23.2565

> <r_i_glide_einternal>
5.38064

> <i_i_glide_confnum>
24

> <i_i_glide_posenum>
826

$$$$
C05827
                    3D
 Structure written by MMmdl.
 17 17  0  0  1  0            999 V2000
    1.8380    1.3765    3.2157 C   0  0  0  0  0  0
    3.1567    1.6555    3.5023 C   0  0  0  0  0  0
    1.4653    0.1886    3.8441 N   0  0  0  0  0  0
    0.8761    2.1521    2.3646 C   0  0  0  0  0  0
    3.6085    0.6329    4.3252 N   0  0  0  0  0  0
    2.5648   -0.1920    4.4821 C   0  0  0  0  0  0
    0.5856    3.4591    3.1000 C   0  0  0  0  0  0
    4.9325    0.4858    4.8896 C   0  0  0  0  0  0
   -0.5491    3.7132    3.4989 O   0  0  0  0  0  0
    3.7923    2.4741    3.1976 H   0  0  0  0  0  0
    1.3005    2.3673    1.3836 H   0  0  0  0  0  0
   -0.0535    1.6033    2.2111 H   0  0  0  0  0  0
    2.6124   -1.0925    5.0767 H   0  0  0  0  0  0
    1.4313    4.1323    3.2460 H   0  0  0  0  0  0
    4.8619    0.1001    5.9071 H   0  0  0  0  0  0
    5.5138   -0.2087    4.2828 H   0  0  0  0  0  0
    5.4388    1.4513    4.9118 H   0  0  0  0  0  0
  1  2  2  0  0  0
  1  3  1  0  0  0
  1  4  1  0  0  0
  2  5  1  0  0  0
  2 10  1  0  0  0
  3  6  2  0  0  0
  4  7  1  0  0  0
  4 11  1  0  0  0
  4 12  1  0  0  0
  5  8  1  0  0  0
  5  6  1  0  0  0
  6 13  1  0  0  0
  7  9  2  0  0  0
  7 14  1  0  0  0
  8 15  1  0  0  0
  8 16  1  0  0  0
  8 17  1  0  0  0
M  END
> <i_ionizer_Ion_state_n>
0

> <i_ionizer_Tot_Q>
0

> <s_ionizer_Ion_centers>


> <s_ionizer_Ion_types>


> <s_ionizer_Ion_ctrs_in>


> <r_ionizer_Ionization_penalty>
0.41068

> <r_ionizer_Ionization_penalty_charging>
0

> <r_ionizer_Ionization_penalty_neutral>
0.41068

> <i_mmod_Serial_Number-OPLS-2005>
800

> <i_i_glide_lignum>
791

> <r_i_docking_score>
-4.89179

> <r_i_glide_gscore>
-4.89179

> <r_i_glide_lipo>
-0.358192

> <r_i_glide_hbond>
-0.593854

> <r_i_glide_metal>
0

> <r_i_glide_eburp>
-2.5

> <r_i_glide_evdw>
-17.6576

> <r_i_glide_ecoul>
-5.61978

> <r_i_glide_erotb>
1.00626

> <r_i_glide_esite>
-0.471413

> <r_i_glide_emodel>
-31.3778

> <r_i_glide_energy>
-23.2774

> <r_i_glide_einternal>
0.527885

> <i_i_glide_confnum>
1

> <i_i_glide_posenum>
229

$$$$
C04546
                    3D
 Structure written by MMmdl.
 26 25  0  0  1  0            999 V2000
    2.3584    0.7465    3.9285 C   0  0  1  0  0  0
    2.9287    0.9321    2.6285 O   0  0  0  0  0  0
    0.8990    1.2539    3.9164 C   0  0  0  0  0  0
    2.4338   -0.7473    4.2789 C   0  0  0  0  0  0
    2.4375    0.4099    1.4703 C   0  0  0  0  0  0
    0.7736    2.7494    3.5931 C   0  0  0  0  0  0
    3.1930    0.7410    0.1674 C   0  0  0  0  0  0
    1.4324   -0.2997    1.4528 O   0  0  0  0  0  0
    1.7476    3.3240    3.0567 O   0  0  0  0  0  0
    4.7005    1.0218    0.3533 C   0  0  1  0  0  0
    5.4346   -0.1761    0.9699 C   0  0  0  0  0  0
    5.3017    1.2998   -0.8966 O   0  0  0  0  0  0
    2.8782    1.3003    4.7091 H   0  0  0  0  0  0
    0.3169    0.6886    3.1874 H   0  0  0  0  0  0
    0.4364    1.0804    4.8882 H   0  0  0  0  0  0
    3.4660   -1.0969    4.3024 H   0  0  0  0  0  0
    1.9978   -0.9417    5.2590 H   0  0  0  0  0  0
    1.8952   -1.3517    3.5484 H   0  0  0  0  0  0
    3.0868   -0.1176   -0.4970 H   0  0  0  0  0  0
    2.7250    1.5929   -0.3268 H   0  0  0  0  0  0
    4.8436    1.8863    1.0034 H   0  0  0  0  0  0
    6.4969    0.0358    1.0955 H   0  0  0  0  0  0
    5.3434   -1.0639    0.3430 H   0  0  0  0  0  0
    5.0299   -0.4198    1.9526 H   0  0  0  0  0  0
    5.1026    0.5872   -1.4860 H   0  0  0  0  0  0
   -0.2999    3.3024    3.9169 O   0  5  0  0  0  0
  1  2  1  0  0  0
  1  3  1  0  0  0
  1  4  1  0  0  0
  1 13  1  0  0  0
  2  5  1  0  0  0
  3  6  1  0  0  0
  3 14  1  0  0  0
  3 15  1  0  0  0
  4 16  1  0  0  0
  4 17  1  0  0  0
  4 18  1  0  0  0
  5  7  1  0  0  0
  5  8  2  0  0  0
  6  9  2  0  0  0
  6 26  1  0  0  0
  7 10  1  0  0  0
  7 19  1  0  0  0
  7 20  1  0  0  0
 10 11  1  0  0  0
 10 12  1  0  0  0
 10 21  1  0  0  0
 11 22  1  0  0  0
 11 23  1  0  0  0
 11 24  1  0  0  0
 12 25  1  0  0  0
M  CHG  1  26  -1
M  END
> <i_ionizer_Ion_state_n>
1

> <i_ionizer_Tot_Q>
-1

> <s_ionizer_Ion_centers>
26

> <s_ionizer_Ion_types>
OM

> <s_ionizer_Ion_ctrs_in>
9

> <r_ionizer_Ionization_penalty>
0.00059219

> <r_ionizer_Ionization_penalty_charging>
0.00059219

> <r_ionizer_Ionization_penalty_neutral>
0

> <s_st_Chirality_1>
1_R_2_3_4_13

> <s_st_Chirality_2>
10_R_12_7_11_21

> <i_mmod_Serial_Number-OPLS-2005>
601

> <i_i_glide_lignum>
595

> <r_i_docking_score>
-4.88027

> <r_i_glide_gscore>
-4.88027

> <r_i_glide_lipo>
-0.593066

> <r_i_glide_hbond>
-1.50416

> <r_i_glide_metal>
0

> <r_i_glide_eburp>
-2.35462

> <r_i_glide_evdw>
-13.7489

> <r_i_glide_ecoul>
-11.9918

> <r_i_glide_erotb>
2.55886

> <r_i_glide_esite>
-0.688192

> <r_i_glide_emodel>
-49.1145

> <r_i_glide_energy>
-25.7407

> <r_i_glide_einternal>
4.65626

> <i_i_glide_confnum>
68

> <i_i_glide_posenum>
295

$$$$
C00217
                    3D
 Structure written by MMmdl.
 18 17  0  0  1  0            999 V2000
    2.3274    0.7443    3.1951 C   0  0  2  0  0  0
    1.5959    2.0221    3.6589 C   0  0  0  0  0  0
    1.3338   -0.3063    2.6799 C   0  0  0  0  0  0
    0.5890    2.5441    2.6123 C   0  0  0  0  0  0
    0.2098    0.0927    2.2994 O   0  0  0  0  0  0
   -0.3006    3.6899    3.1065 C   0  0  0  0  0  0
   -1.4838    3.7440    2.7042 O   0  0  0  0  0  0
    3.0250    0.9985    2.3948 H   0  0  0  0  0  0
    1.0571    1.8148    4.5857 H   0  0  0  0  0  0
    2.3229    2.8001    3.8995 H   0  0  0  0  0  0
    3.5845   -0.6694    3.9575 H   0  0  0  0  0  0
    3.7608    0.8206    4.6545 H   0  0  0  0  0  0
    1.1188    2.8967    1.7271 H   0  0  0  0  0  0
   -0.0584    1.7298    2.2850 H   0  0  0  0  0  0
    3.0984    0.1473    4.2982 N   0  3  0  0  0  0
    2.4569   -0.1254    5.0292 H   0  0  0  0  0  0
    1.7057   -1.4998    2.7001 O   0  5  0  0  0  0
    0.2308    4.5003    3.8959 O   0  5  0  0  0  0
  1  2  1  0  0  0
  1  3  1  0  0  0
  1  8  1  0  0  0
  1 15  1  0  0  0
  2  4  1  0  0  0
  2  9  1  0  0  0
  2 10  1  0  0  0
  3  5  2  0  0  0
  3 17  1  0  0  0
  4  6  1  0  0  0
  4 13  1  0  0  0
  4 14  1  0  0  0
  6  7  2  0  0  0
  6 18  1  0  0  0
 11 15  1  0  0  0
 12 15  1  0  0  0
 15 16  1  0  0  0
M  CHG  3  15   1  17  -1  18  -1
M  END
> <i_ionizer_Ion_state_n>
7

> <i_ionizer_Tot_Q>
-1

> <s_ionizer_Ion_centers>
15_17_18

> <s_ionizer_Ion_types>
N5_OM_OM

> <s_ionizer_Ion_ctrs_in>
4_6_9

> <r_ionizer_Ionization_penalty>
0.00137171

> <r_ionizer_Ionization_penalty_charging>
0.00137171

> <r_ionizer_Ionization_penalty_neutral>
0

> <s_st_Chirality_1>
1_R_15_3_2_8

> <i_mmod_Serial_Number-OPLS-2005>
144

> <i_i_glide_lignum>
142

> <r_i_docking_score>
-4.86778

> <r_i_glide_gscore>
-4.86778

> <r_i_glide_lipo>
-0.215751

> <r_i_glide_hbond>
-1.59985

> <r_i_glide_metal>
0

> <r_i_glide_eburp>
-2.9

> <r_i_glide_evdw>
-9.7483

> <r_i_glide_ecoul>
-7.88941

> <r_i_glide_erotb>
1.55709

> <r_i_glide_esite>
-0.140464

> <r_i_glide_emodel>
-52.0538

> <r_i_glide_energy>
-17.6377

> <r_i_glide_einternal>
3.72977

> <i_i_glide_confnum>
5

> <i_i_glide_posenum>
235

$$$$
C01181
                    3D
 Structure written by MMmdl.
 25 24  0  0  1  0            999 V2000
    3.3483    0.7411    2.9879 N   0  3  0  0  0  0
    2.5614    1.9939    3.2160 C   0  0  0  0  0  0
    4.0348    0.3883    4.2585 C   0  0  0  0  0  0
    2.4604   -0.3886    2.6053 C   0  0  0  0  0  0
    4.3809    0.9394    1.9364 C   0  0  0  0  0  0
    1.8387    2.5718    1.9787 C   0  0  0  0  0  0
    1.1800    3.9318    2.2835 C   0  0  0  0  0  0
   -0.0645    3.8131    3.1725 C   0  0  0  0  0  0
   -1.1558    4.2446    2.7379 O   0  0  0  0  0  0
    1.8194    1.8075    3.9946 H   0  0  0  0  0  0
    3.2271    2.7603    3.6173 H   0  0  0  0  0  0
    4.6274   -0.5218    4.1529 H   0  0  0  0  0  0
    4.7102    1.1837    4.5779 H   0  0  0  0  0  0
    3.3171    0.2204    5.0631 H   0  0  0  0  0  0
    3.0181   -1.3252    2.5566 H   0  0  0  0  0  0
    1.6553   -0.5211    3.3296 H   0  0  0  0  0  0
    2.0089   -0.2404    1.6243 H   0  0  0  0  0  0
    5.0298    0.0659    1.8560 H   0  0  0  0  0  0
    3.9385    1.0939    0.9522 H   0  0  0  0  0  0
    5.0124    1.8004    2.1603 H   0  0  0  0  0  0
    2.5415    2.7022    1.1559 H   0  0  0  0  0  0
    1.0689    1.8820    1.6330 H   0  0  0  0  0  0
    1.8936    4.5897    2.7806 H   0  0  0  0  0  0
    0.8905    4.4235    1.3542 H   0  0  0  0  0  0
    0.1056    3.2821    4.2910 O   0  5  0  0  0  0
  1  2  1  0  0  0
  1  3  1  0  0  0
  1  4  1  0  0  0
  1  5  1  0  0  0
  2  6  1  0  0  0
  2 10  1  0  0  0
  2 11  1  0  0  0
  3 12  1  0  0  0
  3 13  1  0  0  0
  3 14  1  0  0  0
  4 15  1  0  0  0
  4 16  1  0  0  0
  4 17  1  0  0  0
  5 18  1  0  0  0
  5 19  1  0  0  0
  5 20  1  0  0  0
  6  7  1  0  0  0
  6 21  1  0  0  0
  6 22  1  0  0  0
  7  8  1  0  0  0
  7 23  1  0  0  0
  7 24  1  0  0  0
  8  9  2  0  0  0
  8 25  1  0  0  0
M  CHG  2   1   1  25  -1
M  END
> <i_ionizer_Ion_state_n>
1

> <i_ionizer_Tot_Q>
0

> <s_ionizer_Ion_centers>
25

> <s_ionizer_Ion_types>
OM

> <s_ionizer_Ion_ctrs_in>
9

> <r_ionizer_Ionization_penalty>
0.00059219

> <r_ionizer_Ionization_penalty_charging>
0.00059219

> <r_ionizer_Ionization_penalty_neutral>
0

> <i_mmod_Serial_Number-OPLS-2005>
417

> <i_i_glide_lignum>
413

> <r_i_docking_score>
-4.86723

> <r_i_glide_gscore>
-4.86723

> <r_i_glide_lipo>
-0.409468

> <r_i_glide_hbond>
-1.39056

> <r_i_glide_metal>
0

> <r_i_glide_eburp>
-2.9

> <r_i_glide_evdw>
-10.4578

> <r_i_glide_ecoul>
-6.5197

> <r_i_glide_erotb>
1.57285

> <r_i_glide_esite>
-0.251452

> <r_i_glide_emodel>
-40.8673

> <r_i_glide_energy>
-16.9775

> <r_i_glide_einternal>
0.990849

> <i_i_glide_confnum>
5

> <i_i_glide_posenum>
400

$$$$
C00440
                    3D
 Structure written by MMmdl.
 56 58  0  0  1  0            999 V2000
   -1.8402   10.6035    8.1630 C   0  0  0  0  0  0
   -3.1928   10.5197    8.1481 C   0  0  0  0  0  0
   -1.0926   10.5630    7.0094 N   0  0  0  0  0  0
   -1.0806   10.7098    9.3286 N   0  0  0  0  0  0
   -3.8831   10.4536    6.9265 N   0  0  0  0  0  0
   -3.8977   10.5002    9.4491 C   0  0  0  0  0  0
   -1.6535    9.9359    5.8275 C   0  0  0  0  0  0
   -1.7009   10.7197   10.4637 C   0  0  0  0  0  0
   -3.1786   10.1997    5.6515 C   0  0  1  0  0  0
   -5.2595   10.9270    6.7653 C   0  0  0  0  0  0
   -3.0933   10.6165   10.5323 N   0  0  0  0  0  0
   -5.1111   10.3713    9.6058 O   0  0  0  0  0  0
   -1.1042   10.8233   11.7028 N   0  0  0  0  0  0
   -3.8224    9.0304    4.8588 C   0  0  0  0  0  0
   -3.3112    8.9001    3.5002 N   0  0  0  0  0  0
   -2.3163    8.1066    3.0540 C   0  0  0  0  0  0
   -2.0862    8.0303    1.6655 C   0  0  0  0  0  0
   -1.4987    7.3564    3.9289 C   0  0  0  0  0  0
   -1.0572    7.2160    1.1540 C   0  0  0  0  0  0
   -0.4692    6.5423    3.4184 C   0  0  0  0  0  0
   -0.2450    6.4559    2.0269 C   0  0  0  0  0  0
    0.8706    5.5986    1.4993 C   0  0  0  0  0  0
    1.3362    4.6699    2.3492 N   0  0  0  0  0  0
    1.3398    5.7934    0.3776 O   0  0  0  0  0  0
    2.1309    3.4974    1.9943 C   0  0  2  0  0  0
    1.4692    2.2036    2.5264 C   0  0  0  0  0  0
    3.5974    3.7176    2.3885 C   0  0  0  0  0  0
    2.0643    0.8877    1.9773 C   0  0  0  0  0  0
    3.8297    4.1233    3.5486 O   0  0  0  0  0  0
    1.1780   -0.3388    2.2196 C   0  0  0  0  0  0
    1.7068   -1.3650    2.7025 O   0  0  0  0  0  0
   -0.0866   10.5652    7.0955 H   0  0  0  0  0  0
   -1.1012   10.2518    4.9423 H   0  0  0  0  0  0
   -1.4698    8.8668    5.9436 H   0  0  0  0  0  0
   -3.2488   11.1229    5.0734 H   0  0  0  0  0  0
   -5.9638   10.1301    7.0052 H   0  0  0  0  0  0
   -5.4630   11.7778    7.4162 H   0  0  0  0  0  0
   -5.4692   11.2655    5.7508 H   0  0  0  0  0  0
   -3.5377   10.6105   11.4377 H   0  0  0  0  0  0
   -0.1051   10.9042   11.8253 H   0  0  0  0  0  0
   -1.6094   10.8289   12.5767 H   0  0  0  0  0  0
   -3.6437    8.0767    5.3570 H   0  0  0  0  0  0
   -4.9072    9.1388    4.8269 H   0  0  0  0  0  0
   -3.7475    9.5008    2.8156 H   0  0  0  0  0  0
   -2.6966    8.6010    0.9807 H   0  0  0  0  0  0
   -1.6460    7.3943    4.9974 H   0  0  0  0  0  0
   -0.8977    7.1874    0.0857 H   0  0  0  0  0  0
    0.1462    5.9793    4.1054 H   0  0  0  0  0  0
    1.1522    4.7873    3.3352 H   0  0  0  0  0  0
    2.1354    3.4211    0.9049 H   0  0  0  0  0  0
    1.5482    2.1906    3.6147 H   0  0  0  0  0  0
    0.4015    2.2393    2.3040 H   0  0  0  0  0  0
    2.2264    0.9840    0.9030 H   0  0  0  0  0  0
    3.0387    0.6924    2.4258 H   0  0  0  0  0  0
    4.4639    3.4640    1.5217 O   0  5  0  0  0  0
   -0.0263   -0.2319    1.9004 O   0  5  0  0  0  0
  1  2  2  0  0  0
  1  3  1  0  0  0
  1  4  1  0  0  0
  2  5  1  0  0  0
  2  6  1  0  0  0
  3  7  1  0  0  0
  3 32  1  0  0  0
  4  8  2  0  0  0
  5  9  1  0  0  0
  5 10  1  0  0  0
  6 11  1  0  0  0
  6 12  2  0  0  0
  7  9  1  0  0  0
  7 33  1  0  0  0
  7 34  1  0  0  0
  8 13  1  0  0  0
  8 11  1  0  0  0
  9 14  1  0  0  0
  9 35  1  0  0  0
 10 36  1  0  0  0
 10 37  1  0  0  0
 10 38  1  0  0  0
 11 39  1  0  0  0
 13 40  1  0  0  0
 13 41  1  0  0  0
 14 15  1  0  0  0
 14 42  1  0  0  0
 14 43  1  0  0  0
 15 16  1  0  0  0
 15 44  1  0  0  0
 16 17  1  0  0  0
 16 18  2  0  0  0
 17 19  2  0  0  0
 17 45  1  0  0  0
 18 20  1  0  0  0
 18 46  1  0  0  0
 19 21  1  0  0  0
 19 47  1  0  0  0
 20 21  2  0  0  0
 20 48  1  0  0  0
 21 22  1  0  0  0
 22 23  1  0  0  0
 22 24  2  0  0  0
 23 25  1  0  0  0
 23 49  1  0  0  0
 25 26  1  0  0  0
 25 27  1  0  0  0
 25 50  1  0  0  0
 26 28  1  0  0  0
 26 51  1  0  0  0
 26 52  1  0  0  0
 27 29  2  0  0  0
 27 55  1  0  0  0
 28 30  1  0  0  0
 28 53  1  0  0  0
 28 54  1  0  0  0
 30 31  2  0  0  0
 30 56  1  0  0  0
M  CHG  2  55  -1  56  -1
M  END
> <i_ionizer_Ion_state_n>
6

> <i_ionizer_Tot_Q>
-2

> <s_ionizer_Ion_centers>
55_56

> <s_ionizer_Ion_types>
OM_OM

> <s_ionizer_Ion_ctrs_in>
29_32

> <r_ionizer_Ionization_penalty>
0.00305503

> <r_ionizer_Ionization_penalty_charging>
0.00118438

> <r_ionizer_Ionization_penalty_neutral>
0.00187065

> <s_st_Chirality_1>
25_R_23_27_26_50

> <s_st_Chirality_2>
9_R_5_7_14_35

> <i_mmod_Serial_Number-OPLS-2005>
238

> <i_i_glide_lignum>
236

> <r_i_docking_score>
-4.85804

> <r_i_glide_gscore>
-4.85804

> <r_i_glide_lipo>
-1.04468

> <r_i_glide_hbond>
-1.03072

> <r_i_glide_metal>
0

> <r_i_glide_eburp>
-0.322351

> <r_i_glide_evdw>
-36.4949

> <r_i_glide_ecoul>
-7.4016

> <r_i_glide_erotb>
0.878414

> <r_i_glide_esite>
0.321046

> <r_i_glide_emodel>
-83.9872

> <r_i_glide_energy>
-43.8965

> <r_i_glide_einternal>
7.37075

> <i_i_glide_confnum>
22

> <i_i_glide_posenum>
3

$$$$
C05127
                    3D
 Structure written by MMmdl.
 21 21  0  0  1  0            999 V2000
    4.5362    0.7410    4.3070 C   0  0  0  0  0  0
    3.3207    0.1043    4.4238 C   0  0  0  0  0  0
    4.3627    1.9711    3.6762 N   0  0  0  0  0  0
    5.8886    0.2753    4.7507 C   0  0  0  0  0  0
    2.3761    0.9494    3.8570 N   0  0  0  0  0  0
    3.0577    2.0253    3.4412 C   0  0  0  0  0  0
    5.9997    0.2030    6.2800 C   0  0  0  0  0  0
    0.9522    0.7183    3.7443 C   0  0  0  0  0  0
    3.0566   -0.8521    4.8512 H   0  0  0  0  0  0
    6.0974   -0.7053    4.3208 H   0  0  0  0  0  0
    6.6555    0.9449    4.3592 H   0  0  0  0  0  0
    2.5871    2.8674    2.9550 H   0  0  0  0  0  0
    6.1098    1.2040    6.6989 H   0  0  0  0  0  0
    5.0917   -0.2256    6.7061 H   0  0  0  0  0  0
    0.5883    1.0981    2.7891 H   0  0  0  0  0  0
    0.7406   -0.3498    3.8035 H   0  0  0  0  0  0
    0.4331    1.2307    4.5545 H   0  0  0  0  0  0
    7.1927   -0.6440    7.7089 H   0  0  0  0  0  0
    7.0429   -1.5560    6.3443 H   0  0  0  0  0  0
    7.1495   -0.6166    6.7000 N   0  3  0  0  0  0
    8.0030   -0.2149    6.3390 H   0  0  0  0  0  0
  1  2  2  0  0  0
  1  3  1  0  0  0
  1  4  1  0  0  0
  2  5  1  0  0  0
  2  9  1  0  0  0
  3  6  2  0  0  0
  4  7  1  0  0  0
  4 10  1  0  0  0
  4 11  1  0  0  0
  5  8  1  0  0  0
  5  6  1  0  0  0
  6 12  1  0  0  0
  7 13  1  0  0  0
  7 14  1  0  0  0
  7 20  1  0  0  0
  8 15  1  0  0  0
  8 16  1  0  0  0
  8 17  1  0  0  0
 18 20  1  0  0  0
 19 20  1  0  0  0
 20 21  1  0  0  0
M  CHG  1  20   1
M  END
> <i_ionizer_Ion_state_n>
2

> <i_ionizer_Tot_Q>
1

> <s_ionizer_Ion_centers>
20

> <s_ionizer_Ion_types>
N5

> <s_ionizer_Ion_ctrs_in>
9

> <r_ionizer_Ionization_penalty>
0.410867

> <r_ionizer_Ionization_penalty_charging>
0.000187331

> <r_ionizer_Ionization_penalty_neutral>
0.41068

> <i_mmod_Serial_Number-OPLS-2005>
629

> <i_i_glide_lignum>
622

> <r_i_docking_score>
-4.8302

> <r_i_glide_gscore>
-4.8302

> <r_i_glide_lipo>
-0.581194

> <r_i_glide_hbond>
-0.530674

> <r_i_glide_metal>
0

> <r_i_glide_eburp>
-2.5

> <r_i_glide_evdw>
-15.4575

> <r_i_glide_ecoul>
-6.25315

> <r_i_glide_erotb>
0.981068

> <r_i_glide_esite>
-0.337492

> <r_i_glide_emodel>
-36.4903

> <r_i_glide_energy>
-21.7106

> <r_i_glide_einternal>
2.01838

> <i_i_glide_confnum>
3

> <i_i_glide_posenum>
46

$$$$
C00224
                    3D
 Structure written by MMmdl.
 39 41  0  0  1  0            999 V2000
    1.1184    5.2311    2.1087 N   0  0  0  0  0  0
    0.3768    6.0567    1.2938 C   0  0  0  0  0  0
    2.0742    4.1783    1.6478 C   0  0  2  0  0  0
    0.7906    5.6084    3.3951 C   0  0  0  0  0  0
   -0.3706    6.8932    2.1665 C   0  0  0  0  0  0
    0.3476    6.0914   -0.0706 N   0  0  0  0  0  0
    1.6060    2.9476    2.1204 O   0  0  0  0  0  0
    3.4478    4.4294    2.2817 C   0  0  1  0  0  0
   -0.0817    6.5773    3.4875 N   0  0  0  0  0  0
   -1.2183    7.8381    1.5360 C   0  0  0  0  0  0
   -0.4928    7.0287   -0.5187 C   0  0  0  0  0  0
    2.5462    2.3631    3.0199 C   0  0  1  0  0  0
    3.3815    3.5448    3.5153 C   0  0  1  0  0  0
    4.4933    4.0574    1.4036 O   0  0  0  0  0  0
   -1.2531    7.8759    0.1834 N   0  0  0  0  0  0
   -1.9875    8.6984    2.2158 N   0  0  0  0  0  0
    1.8104    1.5834    4.1162 C   0  0  0  0  0  0
    4.6635    3.1802    3.9920 O   0  0  0  0  0  0
    0.8430    0.7487    3.5144 O   0  0  0  0  0  0
    1.2020   -0.2075    2.1517 P   0  0  0  0  0  0
    2.4662    0.5355    1.2734 O   0  0  0  0  0  0
    1.7221   -1.5022    2.6489 O   0  0  0  0  0  0
    4.0655    0.2356    1.7249 S   0  0  0  0  0  0
    4.6911    1.5668    1.7066 O   0  0  0  0  0  0
    3.9253   -0.3400    3.0716 O   0  0  0  0  0  0
    2.0565    4.2357    0.5586 H   0  0  0  0  0  0
    1.2206    5.1434    4.2707 H   0  0  0  0  0  0
    3.5777    5.4816    2.5400 H   0  0  0  0  0  0
   -0.5680    7.1135   -1.5928 H   0  0  0  0  0  0
    3.1751    1.6856    2.4398 H   0  0  0  0  0  0
    2.8481    4.0788    4.3002 H   0  0  0  0  0  0
    4.4029    4.5802    0.6201 H   0  0  0  0  0  0
   -2.5729    9.3522    1.7173 H   0  0  0  0  0  0
   -1.9749    8.6888    3.2256 H   0  0  0  0  0  0
    2.5010    0.9977    4.7208 H   0  0  0  0  0  0
    1.3062    2.2759    4.7907 H   0  0  0  0  0  0
    4.9288    2.3864    3.5430 H   0  0  0  0  0  0
   -0.0011   -0.2096    1.2891 O   0  5  0  0  0  0
    4.5748   -0.7065    0.7154 O   0  5  0  0  0  0
  1  2  1  0  0  0
  1  3  1  0  0  0
  1  4  1  0  0  0
  2  5  2  0  0  0
  2  6  1  0  0  0
  3  7  1  0  0  0
  3  8  1  0  0  0
  3 26  1  0  0  0
  4  9  2  0  0  0
  4 27  1  0  0  0
  5 10  1  0  0  0
  5  9  1  0  0  0
  6 11  2  0  0  0
  7 12  1  0  0  0
  8 13  1  0  0  0
  8 14  1  0  0  0
  8 28  1  0  0  0
 10 15  2  0  0  0
 10 16  1  0  0  0
 11 15  1  0  0  0
 11 29  1  0  0  0
 12 17  1  0  0  0
 12 13  1  0  0  0
 12 30  1  0  0  0
 13 18  1  0  0  0
 13 31  1  0  0  0
 14 32  1  0  0  0
 16 33  1  0  0  0
 16 34  1  0  0  0
 17 19  1  0  0  0
 17 35  1  0  0  0
 17 36  1  0  0  0
 18 37  1  0  0  0
 19 20  1  0  0  0
 20 21  1  0  0  0
 20 22  2  0  0  0
 20 38  1  0  0  0
 21 23  1  0  0  0
 23 24  2  0  0  0
 23 25  2  0  0  0
 23 39  1  0  0  0
M  CHG  2  38  -1  39  -1
M  END
> <i_ionizer_Ion_state_n>
6

> <i_ionizer_Tot_Q>
-2

> <s_ionizer_Ion_centers>
38_39

> <s_ionizer_Ion_types>
OM_OM

> <s_ionizer_Ion_ctrs_in>
22_25

> <r_ionizer_Ionization_penalty>
2.61952e-05

> <r_ionizer_Ionization_penalty_charging>
7.4595e-06

> <r_ionizer_Ionization_penalty_neutral>
1.87357e-05

> <s_st_Chirality_1>
3_R_7_1_8_26

> <s_st_Chirality_2>
8_R_14_3_13_28

> <s_st_Chirality_3>
12_R_7_13_17_30

> <s_st_Chirality_4>
13_R_18_8_12_31

> <i_mmod_Serial_Number-OPLS-2005>
148

> <i_i_glide_lignum>
146

> <r_i_docking_score>
-4.82722

> <r_i_glide_gscore>
-4.82722

> <r_i_glide_lipo>
-0.492829

> <r_i_glide_hbond>
-1.28885

> <r_i_glide_metal>
0

> <r_i_glide_eburp>
-0.566118

> <r_i_glide_evdw>
-27.112

> <r_i_glide_ecoul>
-6.61859

> <r_i_glide_erotb>
0.626724

> <r_i_glide_esite>
-0.275319

> <r_i_glide_emodel>
-60.9112

> <r_i_glide_energy>
-33.7306

> <r_i_glide_einternal>
6.76877

> <i_i_glide_confnum>
125

> <i_i_glide_posenum>
622

$$$$
C00222
                    3D
 Structure written by MMmdl.
  9  8  0  0  1  0            999 V2000
    1.0027    1.6473    2.8415 C   0  0  0  0  0  0
    0.7948    3.0697    3.3546 C   0  0  0  0  0  0
    1.6199    0.7917    3.9450 C   0  0  0  0  0  0
    1.7316    3.8803    3.1836 O   0  0  0  0  0  0
    1.0804   -0.2557    4.2973 O   0  0  0  0  0  0
    0.0481    1.2202    2.5341 H   0  0  0  0  0  0
    1.6605    1.6585    1.9723 H   0  0  0  0  0  0
    2.5458    1.1601    4.3887 H   0  0  0  0  0  0
   -0.3006    3.3244    3.9013 O   0  5  0  0  0  0
  1  2  1  0  0  0
  1  3  1  0  0  0
  1  6  1  0  0  0
  1  7  1  0  0  0
  2  4  2  0  0  0
  2  9  1  0  0  0
  3  5  2  0  0  0
  3  8  1  0  0  0
M  CHG  1   9  -1
M  END
> <i_ionizer_Ion_state_n>
1

> <i_ionizer_Tot_Q>
-1

> <s_ionizer_Ion_centers>
9

> <s_ionizer_Ion_types>
OM

> <s_ionizer_Ion_ctrs_in>
4

> <r_ionizer_Ionization_penalty>
0.00059219

> <r_ionizer_Ionization_penalty_charging>
0.00059219

> <r_ionizer_Ionization_penalty_neutral>
0

> <i_mmod_Serial_Number-OPLS-2005>
147

> <i_i_glide_lignum>
145

> <r_i_docking_score>
-4.82422

> <r_i_glide_gscore>
-4.82422

> <r_i_glide_lipo>
-0.0909477

> <r_i_glide_hbond>
-0.7

> <r_i_glide_metal>
0

> <r_i_glide_eburp>
-2.5

> <r_i_glide_evdw>
-10.3235

> <r_i_glide_ecoul>
-3.61107

> <r_i_glide_erotb>
0

> <r_i_glide_esite>
-0.346282

> <r_i_glide_emodel>
-30.0997

> <r_i_glide_energy>
-13.9346

> <r_i_glide_einternal>
0.0126043

> <i_i_glide_confnum>
1

> <i_i_glide_posenum>
110

$$$$
C01412
                    3D
 Structure written by MMmdl.
 13 12  0  0  1  0            999 V2000
    1.1310    1.4530    3.0398 C   0  0  0  0  0  0
    1.0405    0.8768    4.4620 C   0  0  0  0  0  0
    0.7499    2.9304    2.9934 C   0  0  0  0  0  0
    1.1330   -0.6531    4.4803 C   0  0  0  0  0  0
    0.0982    3.4391    3.9029 O   0  0  0  0  0  0
    2.1446    1.3431    2.6528 H   0  0  0  0  0  0
    0.4715    0.9027    2.3679 H   0  0  0  0  0  0
    1.8394    1.2889    5.0804 H   0  0  0  0  0  0
    0.1016    1.1820    4.9265 H   0  0  0  0  0  0
    1.0895    3.4846    2.1180 H   0  0  0  0  0  0
    1.0662   -1.0342    5.4995 H   0  0  0  0  0  0
    0.3249   -1.1036    3.9033 H   0  0  0  0  0  0
    2.0782   -0.9958    4.0585 H   0  0  0  0  0  0
  1  2  1  0  0  0
  1  3  1  0  0  0
  1  6  1  0  0  0
  1  7  1  0  0  0
  2  4  1  0  0  0
  2  8  1  0  0  0
  2  9  1  0  0  0
  3  5  2  0  0  0
  3 10  1  0  0  0
  4 11  1  0  0  0
  4 12  1  0  0  0
  4 13  1  0  0  0
M  END
> <i_ionizer_Ion_state_n>
0

> <i_ionizer_Tot_Q>
0

> <s_ionizer_Ion_centers>


> <s_ionizer_Ion_types>


> <s_ionizer_Ion_ctrs_in>


> <r_ionizer_Ionization_penalty>
0

> <r_ionizer_Ionization_penalty_charging>
0

> <r_ionizer_Ionization_penalty_neutral>
0

> <i_mmod_Serial_Number-OPLS-2005>
446

> <i_i_glide_lignum>
442

> <r_i_docking_score>
-4.82199

> <r_i_glide_gscore>
-4.82199

> <r_i_glide_lipo>
-0.280026

> <r_i_glide_hbond>
-0.5

> <r_i_glide_metal>
0

> <r_i_glide_eburp>
-2.5

> <r_i_glide_evdw>
-10.6664

> <r_i_glide_ecoul>
-3.04652

> <r_i_glide_erotb>
0

> <r_i_glide_esite>
-0.384003

> <r_i_glide_emodel>
-17.1745

> <r_i_glide_energy>
-13.7129

> <r_i_glide_einternal>
1.58596

> <i_i_glide_confnum>
1

> <i_i_glide_posenum>
679

$$$$
C00123
                    3D
 Structure written by MMmdl.
 22 21  0  0  1  0            999 V2000
    2.6757    0.2641    3.7207 C   0  0  1  0  0  0
    3.4476   -0.3603    2.5337 C   0  0  0  0  0  0
    1.2777    0.7172    3.2779 C   0  0  0  0  0  0
    3.6466    0.5762    1.3210 C   0  0  0  0  0  0
    0.6825    0.0187    2.4263 O   0  0  0  0  0  0
    4.6937   -0.0047    0.3582 C   0  0  0  0  0  0
    2.3341    0.8574    0.5691 C   0  0  0  0  0  0
    3.2148    1.1287    4.1082 H   0  0  0  0  0  0
    4.4231   -0.6991    2.8874 H   0  0  0  0  0  0
    2.9330   -1.2613    2.1943 H   0  0  0  0  0  0
    2.0255   -0.2534    5.5831 H   0  0  0  0  0  0
    1.9769   -1.4854    4.4912 H   0  0  0  0  0  0
    4.0385    1.5287    1.6789 H   0  0  0  0  0  0
    4.8707    0.6658   -0.4834 H   0  0  0  0  0  0
    5.6500   -0.1577    0.8592 H   0  0  0  0  0  0
    4.3718   -0.9657   -0.0445 H   0  0  0  0  0  0
    2.5113    1.4867   -0.3035 H   0  0  0  0  0  0
    1.8717   -0.0666    0.2203 H   0  0  0  0  0  0
    1.6089    1.3781    1.1931 H   0  0  0  0  0  0
    2.5183   -0.6999    4.8232 N   0  3  0  0  0  0
    3.4248   -1.0133    5.1376 H   0  0  0  0  0  0
    0.8173    1.7488    3.8132 O   0  5  0  0  0  0
  1  2  1  0  0  0
  1  3  1  0  0  0
  1  8  1  0  0  0
  1 20  1  0  0  0
  2  4  1  0  0  0
  2  9  1  0  0  0
  2 10  1  0  0  0
  3  5  2  0  0  0
  3 22  1  0  0  0
  4  6  1  0  0  0
  4  7  1  0  0  0
  4 13  1  0  0  0
  6 14  1  0  0  0
  6 15  1  0  0  0
  6 16  1  0  0  0
  7 17  1  0  0  0
  7 18  1  0  0  0
  7 19  1  0  0  0
 11 20  1  0  0  0
 12 20  1  0  0  0
 20 21  1  0  0  0
M  CHG  2  20   1  22  -1
M  END
> <i_ionizer_Ion_state_n>
3

> <i_ionizer_Tot_Q>
0

> <s_ionizer_Ion_centers>
20_22

> <s_ionizer_Ion_types>
N5_OM

> <s_ionizer_Ion_ctrs_in>
4_6

> <r_ionizer_Ionization_penalty>
0.000779521

> <r_ionizer_Ionization_penalty_charging>
0.000779521

> <r_ionizer_Ionization_penalty_neutral>
0

> <s_st_Chirality_1>
1_S_20_3_2_8

> <i_mmod_Serial_Number-OPLS-2005>
89

> <i_i_glide_lignum>
88

> <r_i_docking_score>
-4.82027

> <r_i_glide_gscore>
-4.82027

> <r_i_glide_lipo>
-0.413546

> <r_i_glide_hbond>
-0.781948

> <r_i_glide_metal>
0

> <r_i_glide_eburp>
-2.5

> <r_i_glide_evdw>
-11.3885

> <r_i_glide_ecoul>
-4.63577

> <r_i_glide_erotb>
0.923338

> <r_i_glide_esite>
-0.673462

> <r_i_glide_emodel>
-33.5259

> <r_i_glide_energy>
-16.0243

> <r_i_glide_einternal>
0.223688

> <i_i_glide_confnum>
1

> <i_i_glide_posenum>
218

$$$$
C00506
                    3D
 Structure written by MMmdl.
 16 15  0  0  1  0            999 V2000
    1.0781    2.4689    2.9701 S   0  0  0  0  0  0
    2.7983    1.9440    3.3678 C   0  0  0  0  0  0
    1.2658    3.6393    2.0985 O   0  0  0  0  0  0
    0.4986    2.7854    4.2838 O   0  0  0  0  0  0
    2.8319    0.6380    4.1987 C   0  0  1  0  0  0
    1.9324   -0.4711    3.6268 C   0  0  0  0  0  0
    2.2838   -1.0584    2.5789 O   0  0  0  0  0  0
    3.3145    1.8027    2.4178 H   0  0  0  0  0  0
    3.2908    2.7670    3.8862 H   0  0  0  0  0  0
    2.4855    0.8566    5.2098 H   0  0  0  0  0  0
    4.1903   -0.7090    4.9029 H   0  0  0  0  0  0
    4.8119    0.8112    4.6746 H   0  0  0  0  0  0
    0.5014    1.2916    2.3050 O   0  5  0  0  0  0
    4.1990    0.1000    4.2985 N   0  3  0  0  0  0
    4.5165   -0.1695    3.3790 H   0  0  0  0  0  0
    0.8984   -0.7372    4.2787 O   0  5  0  0  0  0
  1  2  1  0  0  0
  1  3  2  0  0  0
  1  4  2  0  0  0
  1 13  1  0  0  0
  2  5  1  0  0  0
  2  8  1  0  0  0
  2  9  1  0  0  0
  5  6  1  0  0  0
  5 10  1  0  0  0
  5 14  1  0  0  0
  6  7  2  0  0  0
  6 16  1  0  0  0
 11 14  1  0  0  0
 12 14  1  0  0  0
 14 15  1  0  0  0
M  CHG  3  13  -1  14   1  16  -1
M  END
> <i_ionizer_Ion_state_n>
7

> <i_ionizer_Tot_Q>
-1

> <s_ionizer_Ion_centers>
13_14_16

> <s_ionizer_Ion_types>
OM_N5_OM

> <s_ionizer_Ion_ctrs_in>
3_8_9

> <r_ionizer_Ionization_penalty>
0.000779526

> <r_ionizer_Ionization_penalty_charging>
0.000779526

> <r_ionizer_Ionization_penalty_neutral>
0

> <s_st_Chirality_1>
5_R_14_2_6_10

> <i_mmod_Serial_Number-OPLS-2005>
263

> <i_i_glide_lignum>
261

> <r_i_docking_score>
-4.81818

> <r_i_glide_gscore>
-4.81818

> <r_i_glide_lipo>
-0.126078

> <r_i_glide_hbond>
-0.903379

> <r_i_glide_metal>
0

> <r_i_glide_eburp>
-2.5

> <r_i_glide_evdw>
-10.8204

> <r_i_glide_ecoul>
-5.97947

> <r_i_glide_erotb>
0.620994

> <r_i_glide_esite>
-0.446139

> <r_i_glide_emodel>
-41.9682

> <r_i_glide_energy>
-16.7999

> <r_i_glide_einternal>
1.82339

> <i_i_glide_confnum>
3

> <i_i_glide_posenum>
113

$$$$
C05116
                    3D
 Structure written by MMmdl.
 92 94  0  0  1  0            999 V2000
  -10.8588    8.5438   13.9117 N   0  0  0  0  0  0
  -11.7132    8.0282   12.7903 C   0  0  2  0  0  0
  -10.4488    7.8311   15.0196 C   0  0  0  0  0  0
  -10.2370    9.7703   14.0334 C   0  0  0  0  0  0
  -10.8670    7.6789   11.7325 O   0  0  0  0  0  0
  -12.6610    9.1228   12.2649 C   0  0  1  0  0  0
   -9.6308    8.7176   15.7720 C   0  0  0  0  0  0
  -10.7467    6.5423   15.3570 N   0  0  0  0  0  0
   -9.5237    9.9354   15.1154 N   0  0  0  0  0  0
  -10.9239    8.6598   10.6988 C   0  0  1  0  0  0
  -12.3704    9.1468   10.7654 C   0  0  1  0  0  0
  -14.0221    8.8601   12.5356 O   0  0  0  0  0  0
   -9.1062    8.1968   16.9814 C   0  0  0  0  0  0
  -10.1837    6.1919   16.5163 C   0  0  0  0  0  0
   -9.8704    9.7603   10.9374 C   0  0  0  0  0  0
  -13.1716    8.2206   10.0404 O   0  0  0  0  0  0
   -9.4067    6.9224   17.3231 N   0  0  0  0  0  0
   -8.3211    8.9061   17.8028 N   0  0  0  0  0  0
   -8.5841    9.1772   11.0206 O   0  0  0  0  0  0
  -14.4219    8.9428    8.9732 P   0  0  0  0  0  0
   -7.1660   10.1129   11.1791 P   0  0  0  0  0  0
  -15.0948    7.6977    8.3561 O   0  0  0  0  0  0
   -6.6057   10.3997    9.5913 O   0  0  0  0  0  0
   -7.5461   11.4245   11.7545 O   0  0  0  0  0  0
   -5.1884   10.9985    8.8495 P   0  0  0  0  0  0
   -5.2105   10.4046    7.2486 O   0  0  0  0  0  0
   -5.3341   12.4691    8.7520 O   0  0  0  0  0  0
   -4.0638   10.3958    6.4192 C   0  0  0  0  0  0
   -4.2776    9.7061    5.0455 C   0  0  0  0  0  0
   -2.8570    9.5307    4.4083 C   0  0  2  0  0  0
   -4.9993    8.3536    5.2486 C   0  0  0  0  0  0
   -5.1676   10.6156    4.1689 C   0  0  0  0  0  0
   -2.7009    8.5526    3.2321 C   0  0  0  0  0  0
   -1.9006    9.1815    5.3929 O   0  0  0  0  0  0
   -1.7258    8.8635    2.3667 N   0  0  0  0  0  0
   -3.4027    7.5463    3.1263 O   0  0  0  0  0  0
   -1.1658    7.9807    1.3566 C   0  0  0  0  0  0
    0.2431    7.5400    1.7897 C   0  0  0  0  0  0
    0.8128    6.3930    0.9521 C   0  0  0  0  0  0
    1.6980    5.5993    1.5709 N   0  0  0  0  0  0
    0.4685    6.2324   -0.2193 O   0  0  0  0  0  0
    2.3176    4.4290    0.9657 C   0  0  0  0  0  0
    3.7138    4.1889    1.5582 C   0  0  0  0  0  0
    4.3838    2.5599    1.1018 S   0  0  0  0  0  0
    3.3631    1.4916    2.1514 C   0  0  0  0  0  0
    2.0996    0.9349    1.4923 C   0  0  0  0  0  0
    3.6467    1.2148    3.3161 O   0  0  0  0  0  0
    1.2474    0.0849    2.4558 C   0  0  1  0  0  0
   -0.1021   -0.3054    1.8391 C   0  0  0  0  0  0
    1.9381   -1.1045    2.7856 O   0  0  0  0  0  0
  -12.2146    7.1513   13.2012 H   0  0  0  0  0  0
  -10.3278   10.5507   13.2919 H   0  0  0  0  0  0
  -12.3883   10.0889   12.6919 H   0  0  0  0  0  0
  -10.7132    8.1750    9.7448 H   0  0  0  0  0  0
  -12.4650   10.1428   10.3377 H   0  0  0  0  0  0
  -14.2237    7.9900   12.2000 H   0  0  0  0  0  0
  -10.3852    5.1834   16.8461 H   0  0  0  0  0  0
   -9.8863   10.5248   10.1612 H   0  0  0  0  0  0
  -10.0966   10.2604   11.8776 H   0  0  0  0  0  0
   -7.9764    8.4879   18.6542 H   0  0  0  0  0  0
   -8.0889    9.8608   17.5697 H   0  0  0  0  0  0
   -3.7285   11.4199    6.2607 H   0  0  0  0  0  0
   -3.2749    9.8963    6.9812 H   0  0  0  0  0  0
   -2.5635   10.5083    4.0245 H   0  0  0  0  0  0
   -5.1525    7.8253    4.3086 H   0  0  0  0  0  0
   -4.4412    7.6928    5.9122 H   0  0  0  0  0  0
   -5.9826    8.4979    5.6971 H   0  0  0  0  0  0
   -5.3603   10.1861    3.1864 H   0  0  0  0  0  0
   -6.1429   10.7716    4.6290 H   0  0  0  0  0  0
   -4.7115   11.5950    4.0197 H   0  0  0  0  0  0
   -1.0326    9.3182    5.0223 H   0  0  0  0  0  0
   -1.2911    9.7765    2.4648 H   0  0  0  0  0  0
   -1.8107    7.1094    1.2275 H   0  0  0  0  0  0
   -1.1320    8.5084    0.4025 H   0  0  0  0  0  0
    0.9314    8.3845    1.7359 H   0  0  0  0  0  0
    0.2170    7.2271    2.8351 H   0  0  0  0  0  0
    1.9556    5.8242    2.5216 H   0  0  0  0  0  0
    1.6761    3.5619    1.1273 H   0  0  0  0  0  0
    2.3914    4.5772   -0.1128 H   0  0  0  0  0  0
    4.4013    4.9429    1.1738 H   0  0  0  0  0  0
    3.7096    4.3026    2.6429 H   0  0  0  0  0  0
    1.5160    1.7873    1.1428 H   0  0  0  0  0  0
    2.3626    0.3596    0.6036 H   0  0  0  0  0  0
    1.0644    0.6392    3.3778 H   0  0  0  0  0  0
   -0.6949   -0.9040    2.5315 H   0  0  0  0  0  0
   -0.6873    0.5796    1.5874 H   0  0  0  0  0  0
    0.0315   -0.8859    0.9254 H   0  0  0  0  0  0
    2.7385   -0.8750    3.2329 H   0  0  0  0  0  0
  -15.2766    9.7449    9.9774 O   0  5  0  0  0  0
  -13.5749    9.7831    7.9910 O   0  5  0  0  0  0
   -6.1640    9.2887   11.8908 O   0  5  0  0  0  0
   -4.0109   10.4417    9.5520 O   0  5  0  0  0  0
  1  2  1  0  0  0
  1  3  1  0  0  0
  1  4  1  0  0  0
  2  5  1  0  0  0
  2  6  1  0  0  0
  2 51  1  0  0  0
  3  7  2  0  0  0
  3  8  1  0  0  0
  4  9  2  0  0  0
  4 52  1  0  0  0
  5 10  1  0  0  0
  6 11  1  0  0  0
  6 12  1  0  0  0
  6 53  1  0  0  0
  7 13  1  0  0  0
  7  9  1  0  0  0
  8 14  2  0  0  0
 10 15  1  0  0  0
 10 11  1  0  0  0
 10 54  1  0  0  0
 11 16  1  0  0  0
 11 55  1  0  0  0
 12 56  1  0  0  0
 13 17  2  0  0  0
 13 18  1  0  0  0
 14 17  1  0  0  0
 14 57  1  0  0  0
 15 19  1  0  0  0
 15 58  1  0  0  0
 15 59  1  0  0  0
 16 20  1  0  0  0
 18 60  1  0  0  0
 18 61  1  0  0  0
 19 21  1  0  0  0
 20 22  2  0  0  0
 20 89  1  0  0  0
 20 90  1  0  0  0
 21 23  1  0  0  0
 21 24  2  0  0  0
 21 91  1  0  0  0
 23 25  1  0  0  0
 25 26  1  0  0  0
 25 27  2  0  0  0
 25 92  1  0  0  0
 26 28  1  0  0  0
 28 29  1  0  0  0
 28 62  1  0  0  0
 28 63  1  0  0  0
 29 30  1  0  0  0
 29 31  1  0  0  0
 29 32  1  0  0  0
 30 33  1  0  0  0
 30 34  1  0  0  0
 30 64  1  0  0  0
 31 65  1  0  0  0
 31 66  1  0  0  0
 31 67  1  0  0  0
 32 68  1  0  0  0
 32 69  1  0  0  0
 32 70  1  0  0  0
 33 35  1  0  0  0
 33 36  2  0  0  0
 34 71  1  0  0  0
 35 37  1  0  0  0
 35 72  1  0  0  0
 37 38  1  0  0  0
 37 73  1  0  0  0
 37 74  1  0  0  0
 38 39  1  0  0  0
 38 75  1  0  0  0
 38 76  1  0  0  0
 39 40  1  0  0  0
 39 41  2  0  0  0
 40 42  1  0  0  0
 40 77  1  0  0  0
 42 43  1  0  0  0
 42 78  1  0  0  0
 42 79  1  0  0  0
 43 44  1  0  0  0
 43 80  1  0  0  0
 43 81  1  0  0  0
 44 45  1  0  0  0
 45 46  1  0  0  0
 45 47  2  0  0  0
 46 48  1  0  0  0
 46 82  1  0  0  0
 46 83  1  0  0  0
 48 49  1  0  0  0
 48 50  1  0  0  0
 48 84  1  0  0  0
 49 85  1  0  0  0
 49 86  1  0  0  0
 49 87  1  0  0  0
 50 88  1  0  0  0
M  CHG  4  89  -1  90  -1  91  -1  92  -1
M  END
> <i_ionizer_Ion_state_n>
30

> <i_ionizer_Tot_Q>
-4

> <s_ionizer_Ion_centers>
89_90_91_92

> <s_ionizer_Ion_types>
OM_OM_OM_OM

> <s_ionizer_Ion_ctrs_in>
22_23_26_30

> <r_ionizer_Ionization_penalty>
4.85714e-05

> <r_ionizer_Ionization_penalty_charging>
2.98356e-05

> <r_ionizer_Ionization_penalty_neutral>
1.87357e-05

> <s_st_Chirality_1>
2_R_5_1_6_51

> <s_st_Chirality_2>
6_R_12_2_11_53

> <s_st_Chirality_3>
10_R_5_11_15_54

> <s_st_Chirality_4>
11_R_16_6_10_55

> <s_st_Chirality_5>
30_R_34_33_29_64

> <s_st_Chirality_6>
48_R_50_46_49_84

> <i_mmod_Serial_Number-OPLS-2005>
624

> <i_i_glide_lignum>
617

> <r_i_docking_score>
-4.81545

> <r_i_glide_gscore>
-4.81545

> <r_i_glide_lipo>
-0.98718

> <r_i_glide_hbond>
-0.756729

> <r_i_glide_metal>
0

> <r_i_glide_eburp>
-2.26598e-17

> <r_i_glide_evdw>
-44.8064

> <r_i_glide_ecoul>
-3.93019

> <r_i_glide_erotb>
0.555565

> <r_i_glide_esite>
0.350425

> <r_i_glide_emodel>
-85.8322

> <r_i_glide_energy>
-48.7366

> <r_i_glide_einternal>
8.95936

> <i_i_glide_confnum>
608

> <i_i_glide_posenum>
320

$$$$
C00049
                    3D
 Structure written by MMmdl.
 15 14  0  0  1  0            999 V2000
    2.3385    0.3436    4.3799 C   0  0  1  0  0  0
    2.2674    1.7011    3.6238 C   0  0  0  0  0  0
    1.3315   -0.7018    3.8665 C   0  0  0  0  0  0
    0.8370    2.2115    3.3932 C   0  0  0  0  0  0
    1.4034   -1.0875    2.6782 O   0  0  0  0  0  0
    0.5003    3.3032    3.9047 O   0  0  0  0  0  0
    2.1174    0.5181    5.4345 H   0  0  0  0  0  0
    2.8134    2.4721    4.1696 H   0  0  0  0  0  0
    2.7462    1.6093    2.6478 H   0  0  0  0  0  0
    3.6921   -1.1141    4.8292 H   0  0  0  0  0  0
    3.9057   -0.4467    3.3341 H   0  0  0  0  0  0
    3.6836   -0.2542    4.2997 N   0  3  0  0  0  0
    4.3518    0.3998    4.6847 H   0  0  0  0  0  0
    0.4999   -1.1251    4.7001 O   0  5  0  0  0  0
    0.1001    1.4933    2.6845 O   0  5  0  0  0  0
  1  2  1  0  0  0
  1  3  1  0  0  0
  1  7  1  0  0  0
  1 12  1  0  0  0
  2  4  1  0  0  0
  2  8  1  0  0  0
  2  9  1  0  0  0
  3  5  2  0  0  0
  3 14  1  0  0  0
  4  6  2  0  0  0
  4 15  1  0  0  0
 10 12  1  0  0  0
 11 12  1  0  0  0
 12 13  1  0  0  0
M  CHG  3  12   1  14  -1  15  -1
M  END
> <i_ionizer_Ion_state_n>
7

> <i_ionizer_Tot_Q>
-1

> <s_ionizer_Ion_centers>
12_14_15

> <s_ionizer_Ion_types>
N5_OM_OM

> <s_ionizer_Ion_ctrs_in>
4_6_8

> <r_ionizer_Ionization_penalty>
0.00137171

> <r_ionizer_Ionization_penalty_charging>
0.00137171

> <r_ionizer_Ionization_penalty_neutral>
0

> <s_st_Chirality_1>
1_S_12_3_2_7

> <i_mmod_Serial_Number-OPLS-2005>
34

> <i_i_glide_lignum>
33

> <r_i_docking_score>
-4.79857

> <r_i_glide_gscore>
-4.79857

> <r_i_glide_lipo>
-0.160744

> <r_i_glide_hbond>
-1.10109

> <r_i_glide_metal>
0

> <r_i_glide_eburp>
-2.5

> <r_i_glide_evdw>
-9.94078

> <r_i_glide_ecoul>
-7.21297

> <r_i_glide_erotb>
0.913265

> <r_i_glide_esite>
-0.433442

> <r_i_glide_emodel>
-46.1602

> <r_i_glide_energy>
-17.1537

> <r_i_glide_einternal>
2.37528

> <i_i_glide_confnum>
3

> <i_i_glide_posenum>
505

$$$$
C05548
                    3D
 Structure written by MMmdl.
 25 24  0  0  1  0            999 V2000
    2.1125    1.3037    2.3464 C   0  0  0  0  0  0
    1.1868    1.9024    3.4174 C   0  0  0  0  0  0
    2.6792   -0.0792    2.7187 C   0  0  0  0  0  0
    0.6360    3.3222    3.1531 C   0  0  0  0  0  0
    0.9002    1.2738    4.4385 O   0  0  0  0  0  0
    3.4180   -0.7435    1.5481 C   0  0  0  0  0  0
   -0.2990    3.7017    3.8937 O   0  0  0  0  0  0
    4.6894    0.0173    1.1483 C   0  0  0  0  0  0
    5.2489   -0.5273   -0.0810 N   0  0  0  0  0  0
    6.5605   -0.6721   -0.3149 C   0  0  0  0  0  0
    6.9434   -1.3084   -1.6464 C   0  0  0  0  0  0
    7.4343   -0.3224    0.4775 O   0  0  0  0  0  0
    2.9334    2.0004    2.1718 H   0  0  0  0  0  0
    1.5559    1.2311    1.4112 H   0  0  0  0  0  0
    3.3615    0.0193    3.5645 H   0  0  0  0  0  0
    1.8689   -0.7313    3.0484 H   0  0  0  0  0  0
    3.6770   -1.7681    1.8190 H   0  0  0  0  0  0
    2.7485   -0.8099    0.6893 H   0  0  0  0  0  0
    4.4640    1.0754    1.0052 H   0  0  0  0  0  0
    5.4327   -0.0497    1.9445 H   0  0  0  0  0  0
    4.5985   -0.8119   -0.7988 H   0  0  0  0  0  0
    8.0272   -1.3830   -1.7421 H   0  0  0  0  0  0
    6.5243   -2.3119   -1.7240 H   0  0  0  0  0  0
    6.5681   -0.7100   -2.4769 H   0  0  0  0  0  0
    1.1792    3.9575    2.2217 O   0  5  0  0  0  0
  1  2  1  0  0  0
  1  3  1  0  0  0
  1 13  1  0  0  0
  1 14  1  0  0  0
  2  4  1  0  0  0
  2  5  2  0  0  0
  3  6  1  0  0  0
  3 15  1  0  0  0
  3 16  1  0  0  0
  4  7  2  0  0  0
  4 25  1  0  0  0
  6  8  1  0  0  0
  6 17  1  0  0  0
  6 18  1  0  0  0
  8  9  1  0  0  0
  8 19  1  0  0  0
  8 20  1  0  0  0
  9 10  1  0  0  0
  9 21  1  0  0  0
 10 11  1  0  0  0
 10 12  2  0  0  0
 11 22  1  0  0  0
 11 23  1  0  0  0
 11 24  1  0  0  0
M  CHG  1  25  -1
M  END
> <i_ionizer_Ion_state_n>
1

> <i_ionizer_Tot_Q>
-1

> <s_ionizer_Ion_centers>
25

> <s_ionizer_Ion_types>
OM

> <s_ionizer_Ion_ctrs_in>
7

> <r_ionizer_Ionization_penalty>
0.00059219

> <r_ionizer_Ionization_penalty_charging>
0.00059219

> <r_ionizer_Ionization_penalty_neutral>
0

> <i_mmod_Serial_Number-OPLS-2005>
741

> <i_i_glide_lignum>
732

> <r_i_docking_score>
-4.79286

> <r_i_glide_gscore>
-4.79286

> <r_i_glide_lipo>
-0.438187

> <r_i_glide_hbond>
-1.08163

> <r_i_glide_metal>
0

> <r_i_glide_eburp>
-2.37736

> <r_i_glide_evdw>
-23.3701

> <r_i_glide_ecoul>
-7.79309

> <r_i_glide_erotb>
2.62737

> <r_i_glide_esite>
-0.874137

> <r_i_glide_emodel>
-55.842

> <r_i_glide_energy>
-31.1632

> <r_i_glide_einternal>
3.38186

> <i_i_glide_confnum>
23

> <i_i_glide_posenum>
800

$$$$
C01036
                    3D
 Structure written by MMmdl.
 20 19  0  0  1  0            999 V2000
    2.1263    1.6566    3.2634 C   0  0  0  0  0  0
    2.4305    3.1459    3.0691 C   0  0  0  0  0  0
    2.2556    0.7165    2.0605 C   0  0  0  0  0  0
    1.7939    1.2237    4.3663 O   0  0  0  0  0  0
    1.1282    3.9469    3.0476 C   0  0  0  0  0  0
    1.2688   -0.4420    2.1926 C   0  0  0  0  0  0
    0.9825    4.9630    1.9817 C   0  0  0  0  0  0
    0.2753    3.6999    3.9000 O   0  0  0  0  0  0
    1.7004   -1.4999    2.7014 O   0  0  0  0  0  0
   -0.1849    5.4409    1.5008 C   0  0  0  0  0  0
   -1.6377    5.0753    1.9119 C   0  0  0  0  0  0
   -1.7564    4.1018    2.6871 O   0  0  0  0  0  0
    3.0815    3.5069    3.8651 H   0  0  0  0  0  0
    2.9611    3.2896    2.1276 H   0  0  0  0  0  0
    2.0688    1.2612    1.1353 H   0  0  0  0  0  0
    3.2717    0.3247    2.0083 H   0  0  0  0  0  0
    1.8988    5.3500    1.5597 H   0  0  0  0  0  0
   -0.1100    6.1828    0.7203 H   0  0  0  0  0  0
    0.0995   -0.2480    1.7944 O   0  5  0  0  0  0
   -2.5349    5.8229    1.4660 O   0  5  0  0  0  0
  1  2  1  0  0  0
  1  3  1  0  0  0
  1  4  2  0  0  0
  2  5  1  0  0  0
  2 13  1  0  0  0
  2 14  1  0  0  0
  3  6  1  0  0  0
  3 15  1  0  0  0
  3 16  1  0  0  0
  5  7  1  0  0  0
  5  8  2  0  0  0
  6  9  2  0  0  0
  6 19  1  0  0  0
  7 10  2  0  0  0
  7 17  1  0  0  0
 10 11  1  0  0  0
 10 18  1  0  0  0
 11 12  2  0  0  0
 11 20  1  0  0  0
M  CHG  2  19  -1  20  -1
M  END
> <i_ionizer_Ion_state_n>
3

> <i_ionizer_Tot_Q>
-2

> <s_ionizer_Ion_centers>
19_20

> <s_ionizer_Ion_types>
OM_OM

> <s_ionizer_Ion_ctrs_in>
9_13

> <r_ionizer_Ionization_penalty>
0.00118438

> <r_ionizer_Ionization_penalty_charging>
0.00118438

> <r_ionizer_Ionization_penalty_neutral>
0

> <s_st_EZ_1>
5_7_10_11_Z

> <i_mmod_Serial_Number-OPLS-2005>
378

> <i_i_glide_lignum>
374

> <r_i_docking_score>
-4.79247

> <r_i_glide_gscore>
-4.79247

> <r_i_glide_lipo>
-0.283149

> <r_i_glide_hbond>
-1.65697

> <r_i_glide_metal>
0

> <r_i_glide_eburp>
-2.28687

> <r_i_glide_evdw>
-16.3306

> <r_i_glide_ecoul>
-11.8964

> <r_i_glide_erotb>
2.37006

> <r_i_glide_esite>
-0.439466

> <r_i_glide_emodel>
-63.5735

> <r_i_glide_energy>
-28.2269

> <r_i_glide_einternal>
2.72884

> <i_i_glide_confnum>
23

> <i_i_glide_posenum>
291

$$$$
C01044
                    3D
 Structure written by MMmdl.
 16 15  0  0  1  0            999 V2000
    0.9836    1.3873    2.9033 C   0  0  2  0  0  0
    1.3279    2.8651    2.5829 C   0  0  0  0  0  0
    1.8083    0.9444    4.0310 N   0  0  0  0  0  0
    1.0705    0.4399    1.6873 C   0  0  0  0  0  0
    0.5165    3.9108    3.3589 C   0  0  0  0  0  0
    1.7384   -0.2486    4.6381 C   0  0  0  0  0  0
    2.1187    0.4769    1.0051 O   0  0  0  0  0  0
   -0.7083    3.6991    3.4989 O   0  0  0  0  0  0
    0.9007   -1.0996    4.3483 O   0  0  0  0  0  0
   -0.0514    1.3627    3.2503 H   0  0  0  0  0  0
    2.3826    3.0487    2.7897 H   0  0  0  0  0  0
    1.1919    3.0466    1.5154 H   0  0  0  0  0  0
    2.5268    1.5817    4.3397 H   0  0  0  0  0  0
    2.5218   -0.3715    5.4021 H   0  0  0  0  0  0
    0.1049   -0.3303    1.4893 O   0  5  0  0  0  0
    1.1435    4.8825    3.8354 O   0  5  0  0  0  0
  1  2  1  0  0  0
  1  3  1  0  0  0
  1  4  1  0  0  0
  1 10  1  0  0  0
  2  5  1  0  0  0
  2 11  1  0  0  0
  2 12  1  0  0  0
  3  6  1  0  0  0
  3 13  1  0  0  0
  4  7  2  0  0  0
  4 15  1  0  0  0
  5  8  2  0  0  0
  5 16  1  0  0  0
  6  9  2  0  0  0
  6 14  1  0  0  0
M  CHG  2  15  -1  16  -1
M  END
> <i_ionizer_Ion_state_n>
3

> <i_ionizer_Tot_Q>
-2

> <s_ionizer_Ion_centers>
15_16

> <s_ionizer_Ion_types>
OM_OM

> <s_ionizer_Ion_ctrs_in>
7_9

> <r_ionizer_Ionization_penalty>
0.00118438

> <r_ionizer_Ionization_penalty_charging>
0.00118438

> <r_ionizer_Ionization_penalty_neutral>
0

> <s_st_Chirality_1>
1_S_3_4_2_10

> <i_mmod_Serial_Number-OPLS-2005>
380

> <i_i_glide_lignum>
376

> <r_i_docking_score>
-4.76903

> <r_i_glide_gscore>
-4.76903

> <r_i_glide_lipo>
-0.150671

> <r_i_glide_hbond>
-1.18136

> <r_i_glide_metal>
0

> <r_i_glide_eburp>
-2.5

> <r_i_glide_evdw>
-15.4404

> <r_i_glide_ecoul>
-5.30717

> <r_i_glide_erotb>
1.35848

> <r_i_glide_esite>
-0.52953

> <r_i_glide_emodel>
-49.9651

> <r_i_glide_energy>
-20.7476

> <r_i_glide_einternal>
2.6264

> <i_i_glide_confnum>
3

> <i_i_glide_posenum>
244

$$$$
C05805
                    3D
 Structure written by MMmdl.
 98 98  0  0  1  0            999 V2000
   -2.0876    8.0700   13.3225 C   0  0  0  0  0  0
   -0.6733    7.9034   13.8496 C   0  0  0  0  0  0
   -0.2702    7.1510   14.8942 C   0  0  0  0  0  0
    1.2001    7.0657   15.2750 C   0  0  0  0  0  0
   -1.2068    6.3328   15.7707 C   0  0  0  0  0  0
    1.7767    5.6499   15.1208 C   0  0  0  0  0  0
   -1.4690   10.0300    9.1531 C   0  0  0  0  0  0
   -2.0623    9.6332   10.4948 C   0  0  0  0  0  0
   -1.6557   10.0083   11.7257 C   0  0  0  0  0  0
   -2.3948    9.5330   12.9677 C   0  0  0  0  0  0
   -0.4683   10.9192   12.0025 C   0  0  0  0  0  0
   -2.2408    9.4207    4.4590 C   0  0  0  0  0  0
   -2.5790    9.6173    5.9263 C   0  0  0  0  0  0
   -2.1222   10.5816    6.7516 C   0  0  0  0  0  0
   -2.5354   10.6181    8.2154 C   0  0  0  0  0  0
   -1.1756   11.6940    6.3255 C   0  0  0  0  0  0
   -1.0891    8.2963    0.4304 C   0  0  0  0  0  0
   -1.6831    8.6038    1.7937 C   0  0  0  0  0  0
   -2.6521    7.9228    2.4393 C   0  0  0  0  0  0
   -3.1623    8.3858    3.7955 C   0  0  0  0  0  0
   -3.3191    6.6661    1.8999 C   0  0  0  0  0  0
    1.3606    4.8349    3.0002 C   0  0  0  0  0  0
    0.3077    5.4035    2.0607 C   0  0  0  0  0  0
    0.4432    6.3850    1.1439 C   0  0  0  0  0  0
   -0.7395    6.8071    0.2846 C   0  0  0  0  0  0
    1.7309    7.1490    0.8663 C   0  0  0  0  0  0
    3.2695    5.6171   15.3981 C   0  0  0  0  0  0
    3.9194    4.8934   16.3327 C   0  0  0  0  0  0
    5.4294    4.9538   16.4591 C   0  0  0  0  0  0
    3.2515    3.9616   17.3307 C   0  0  0  0  0  0
    1.6853    3.3872    2.6242 C   0  0  0  0  0  0
    0.9899    2.3403    3.4287 C   0  0  0  0  0  0
    2.5647    3.0441    1.6447 C   0  0  0  0  0  0
    1.3023    0.9211    3.1411 C   0  0  0  0  0  0
    0.1701    2.6310    4.3007 O   0  0  0  0  0  0
    2.8820    1.6191    1.3604 C   0  0  0  0  0  0
    3.3087    4.0478    0.7680 C   0  0  0  0  0  0
    2.1973    0.5882    2.1720 C   0  0  0  0  0  0
    0.6421    0.0296    3.9615 O   0  0  0  0  0  0
    3.6890    1.2962    0.4865 O   0  0  0  0  0  0
    2.4969   -0.6763    1.8394 O   0  0  0  0  0  0
    1.3582   -1.0991    4.4467 C   0  0  0  0  0  0
   -2.8177    7.6831   14.0306 H   0  0  0  0  0  0
   -2.1833    7.4482   12.4318 H   0  0  0  0  0  0
    0.0715    8.4634   13.3025 H   0  0  0  0  0  0
    1.7774    7.7595   14.6619 H   0  0  0  0  0  0
    1.3138    7.4051   16.3053 H   0  0  0  0  0  0
   -1.1488    5.2768   15.5072 H   0  0  0  0  0  0
   -0.9239    6.4365   16.8185 H   0  0  0  0  0  0
   -2.2457    6.6480   15.6930 H   0  0  0  0  0  0
    1.2416    4.9456   15.7538 H   0  0  0  0  0  0
    1.6240    5.3012   14.0989 H   0  0  0  0  0  0
   -0.6584   10.7444    9.2717 H   0  0  0  0  0  0
   -1.0353    9.1375    8.7009 H   0  0  0  0  0  0
   -2.9136    8.9718   10.4206 H   0  0  0  0  0  0
   -3.4659    9.6613   12.8069 H   0  0  0  0  0  0
   -2.1372   10.1713   13.8142 H   0  0  0  0  0  0
    0.2292   10.9837   11.1705 H   0  0  0  0  0  0
   -0.8109   11.9266   12.2391 H   0  0  0  0  0  0
    0.0971   10.5460   12.8567 H   0  0  0  0  0  0
   -2.2703   10.3653    3.9199 H   0  0  0  0  0  0
   -1.2061    9.0811    4.4016 H   0  0  0  0  0  0
   -3.2648    8.8833    6.3242 H   0  0  0  0  0  0
   -3.4708   10.0711    8.3429 H   0  0  0  0  0  0
   -2.7487   11.6513    8.4926 H   0  0  0  0  0  0
   -1.1499   11.8407    5.2473 H   0  0  0  0  0  0
   -1.4902   12.6411    6.7643 H   0  0  0  0  0  0
   -0.1622   11.4827    6.6665 H   0  0  0  0  0  0
   -1.7546    8.6191   -0.3671 H   0  0  0  0  0  0
   -0.1858    8.8975    0.3216 H   0  0  0  0  0  0
   -1.2608    9.4748    2.2739 H   0  0  0  0  0  0
   -3.2749    7.5256    4.4572 H   0  0  0  0  0  0
   -4.1620    8.8030    3.6682 H   0  0  0  0  0  0
   -2.7415    6.1815    1.1150 H   0  0  0  0  0  0
   -3.4398    5.9345    2.6992 H   0  0  0  0  0  0
   -4.3070    6.9002    1.5032 H   0  0  0  0  0  0
    2.2743    5.4214    3.0212 H   0  0  0  0  0  0
    0.9803    4.8992    4.0201 H   0  0  0  0  0  0
   -0.6652    4.9455    2.1685 H   0  0  0  0  0  0
   -1.6120    6.2065    0.5465 H   0  0  0  0  0  0
   -0.5156    6.5748   -0.7573 H   0  0  0  0  0  0
    2.5829    6.8074    1.4474 H   0  0  0  0  0  0
    1.9970    7.0547   -0.1866 H   0  0  0  0  0  0
    1.5996    8.2081    1.0856 H   0  0  0  0  0  0
    3.8520    6.2605   14.7544 H   0  0  0  0  0  0
    5.7125    5.3114   17.4494 H   0  0  0  0  0  0
    5.8600    3.9624   16.3165 H   0  0  0  0  0  0
    5.8703    5.6233   15.7198 H   0  0  0  0  0  0
    3.4976    2.9255   17.0974 H   0  0  0  0  0  0
    3.6145    4.1753   18.3363 H   0  0  0  0  0  0
    2.1683    4.0569   17.3579 H   0  0  0  0  0  0
    2.8968    5.0525    0.8266 H   0  0  0  0  0  0
    4.3591    4.0947    1.0564 H   0  0  0  0  0  0
    3.2571    3.7584   -0.2824 H   0  0  0  0  0  0
    3.1764   -0.6342    1.1821 H   0  0  0  0  0  0
    0.8995   -1.4365    5.3759 H   0  0  0  0  0  0
    1.3092   -1.9306    3.7434 H   0  0  0  0  0  0
    2.4019   -0.8662    4.6641 H   0  0  0  0  0  0
  1 10  1  0  0  0
  1  2  1  0  0  0
  1 43  1  0  0  0
  1 44  1  0  0  0
  2  3  2  0  0  0
  2 45  1  0  0  0
  3  4  1  0  0  0
  3  5  1  0  0  0
  4  6  1  0  0  0
  4 46  1  0  0  0
  4 47  1  0  0  0
  5 48  1  0  0  0
  5 49  1  0  0  0
  5 50  1  0  0  0
  6 27  1  0  0  0
  6 51  1  0  0  0
  6 52  1  0  0  0
  7  8  1  0  0  0
  7 15  1  0  0  0
  7 53  1  0  0  0
  7 54  1  0  0  0
  8  9  2  0  0  0
  8 55  1  0  0  0
  9 10  1  0  0  0
  9 11  1  0  0  0
 10 56  1  0  0  0
 10 57  1  0  0  0
 11 58  1  0  0  0
 11 59  1  0  0  0
 11 60  1  0  0  0
 12 13  1  0  0  0
 12 20  1  0  0  0
 12 61  1  0  0  0
 12 62  1  0  0  0
 13 14  2  0  0  0
 13 63  1  0  0  0
 14 15  1  0  0  0
 14 16  1  0  0  0
 15 64  1  0  0  0
 15 65  1  0  0  0
 16 66  1  0  0  0
 16 67  1  0  0  0
 16 68  1  0  0  0
 17 25  1  0  0  0
 17 18  1  0  0  0
 17 69  1  0  0  0
 17 70  1  0  0  0
 18 19  2  0  0  0
 18 71  1  0  0  0
 19 20  1  0  0  0
 19 21  1  0  0  0
 20 72  1  0  0  0
 20 73  1  0  0  0
 21 74  1  0  0  0
 21 75  1  0  0  0
 21 76  1  0  0  0
 22 23  1  0  0  0
 22 31  1  0  0  0
 22 77  1  0  0  0
 22 78  1  0  0  0
 23 24  2  0  0  0
 23 79  1  0  0  0
 24 25  1  0  0  0
 24 26  1  0  0  0
 25 80  1  0  0  0
 25 81  1  0  0  0
 26 82  1  0  0  0
 26 83  1  0  0  0
 26 84  1  0  0  0
 27 28  2  0  0  0
 27 85  1  0  0  0
 28 29  1  0  0  0
 28 30  1  0  0  0
 29 86  1  0  0  0
 29 87  1  0  0  0
 29 88  1  0  0  0
 30 89  1  0  0  0
 30 90  1  0  0  0
 30 91  1  0  0  0
 31 32  1  0  0  0
 31 33  2  0  0  0
 32 34  1  0  0  0
 32 35  2  0  0  0
 33 36  1  0  0  0
 33 37  1  0  0  0
 34 38  2  0  0  0
 34 39  1  0  0  0
 36 40  2  0  0  0
 36 38  1  0  0  0
 37 92  1  0  0  0
 37 93  1  0  0  0
 37 94  1  0  0  0
 38 41  1  0  0  0
 39 42  1  0  0  0
 41 95  1  0  0  0
 42 96  1  0  0  0
 42 97  1  0  0  0
 42 98  1  0  0  0
M  END
> <i_ionizer_Ion_state_n>
0

> <i_ionizer_Tot_Q>
0

> <s_ionizer_Ion_centers>


> <s_ionizer_Ion_types>


> <s_ionizer_Ion_ctrs_in>


> <r_ionizer_Ionization_penalty>
0

> <r_ionizer_Ionization_penalty_charging>
0

> <r_ionizer_Ionization_penalty_neutral>
0

> <s_st_EZ_1>
1_2_3_4_E

> <s_st_EZ_2>
7_8_9_10_E

> <s_st_EZ_3>
12_13_14_15_E

> <s_st_EZ_4>
17_18_19_20_E

> <s_st_EZ_5>
22_23_24_25_E

> <i_mmod_Serial_Number-OPLS-2005>
796

> <i_i_glide_lignum>
787

> <r_i_docking_score>
-4.76337

> <r_i_glide_gscore>
-4.76337

> <r_i_glide_lipo>
-2.07836

> <r_i_glide_hbond>
-0.40196

> <r_i_glide_metal>
0

> <r_i_glide_eburp>
0

> <r_i_glide_evdw>
-41.3813

> <r_i_glide_ecoul>
-5.02843

> <r_i_glide_erotb>
1.10882

> <r_i_glide_esite>
0.421485

> <r_i_glide_emodel>
-66.3394

> <r_i_glide_energy>
-46.4097

> <r_i_glide_einternal>
15.4686

> <i_i_glide_confnum>
737

> <i_i_glide_posenum>
838

$$$$
C00013
                    3D
 Structure written by MMmdl.
  9  8  0  0  1  0            999 V2000
    1.1096    0.4326    3.3521 P   0  0  0  0  0  0
    0.5377    2.0933    3.7011 O   0  0  0  0  0  0
    0.9001   -0.2959    4.6995 O   0  0  0  0  0  0
    0.2335    3.7428    3.0738 P   0  0  0  0  0  0
    1.2201    3.8496    1.8885 O   0  0  0  0  0  0
    0.1876   -0.0149    2.1947 O   0  5  0  0  0  0
    2.5853    0.6794    2.9600 O   0  5  0  0  0  0
   -1.2658    3.6997    2.6998 O   0  5  0  0  0  0
    0.5808    4.6192    4.3001 O   0  5  0  0  0  0
  1  2  1  0  0  0
  1  3  2  0  0  0
  1  6  1  0  0  0
  1  7  1  0  0  0
  2  4  1  0  0  0
  4  5  2  0  0  0
  4  8  1  0  0  0
  4  9  1  0  0  0
M  CHG  4   6  -1   7  -1   8  -1   9  -1
M  END
> <i_ionizer_Ion_state_n>
15

> <i_ionizer_Tot_Q>
-4

> <s_ionizer_Ion_centers>
6_7_8_9

> <s_ionizer_Ion_types>
OM_OM_OM_OM

> <s_ionizer_Ion_ctrs_in>
3_4_7_8

> <r_ionizer_Ionization_penalty>
2.98356e-05

> <r_ionizer_Ionization_penalty_charging>
2.98356e-05

> <r_ionizer_Ionization_penalty_neutral>
0

> <i_mmod_Serial_Number-OPLS-2005>
11

> <i_i_glide_lignum>
11

> <r_i_docking_score>
-4.75908

> <r_i_glide_gscore>
-4.75908

> <r_i_glide_lipo>
0

> <r_i_glide_hbond>
-1.12872

> <r_i_glide_metal>
0

> <r_i_glide_eburp>
-2.47013

> <r_i_glide_evdw>
-8.54795

> <r_i_glide_ecoul>
-4.30924

> <r_i_glide_erotb>
0

> <r_i_glide_esite>
-0.0454771

> <r_i_glide_emodel>
-50.1398

> <r_i_glide_energy>
-12.8572

> <r_i_glide_einternal>
0.0113572

> <i_i_glide_confnum>
1

> <i_i_glide_posenum>
914

$$$$
C00588
                    3D
 Structure written by MMmdl.
 24 23  0  0  1  0            999 V2000
    3.3665   -0.3045    4.5259 C   0  0  0  0  0  0
    4.4150    0.6090    3.9786 N   0  3  0  0  0  0
    1.9202   -0.0071    4.0682 C   0  0  0  0  0  0
    4.0713    2.0007    4.3716 C   0  0  0  0  0  0
    5.7550    0.2788    4.5313 C   0  0  0  0  0  0
    4.4547    0.5406    2.4931 C   0  0  0  0  0  0
    1.5696    1.3151    4.4292 O   0  0  0  0  0  0
    0.8735    2.3175    3.1108 P   0  0  0  0  0  0
    2.1280    2.9039    2.4223 O   0  0  0  0  0  0
    3.5962   -1.3344    4.2483 H   0  0  0  0  0  0
    3.4272   -0.2856    5.6142 H   0  0  0  0  0  0
    1.7818   -0.1254    2.9944 H   0  0  0  0  0  0
    1.2194   -0.6916    4.5459 H   0  0  0  0  0  0
    4.8000    2.7154    3.9858 H   0  0  0  0  0  0
    3.0919    2.2888    3.9860 H   0  0  0  0  0  0
    4.0457    2.1122    5.4567 H   0  0  0  0  0  0
    6.5021    1.0051    4.2078 H   0  0  0  0  0  0
    5.7413    0.2805    5.6222 H   0  0  0  0  0  0
    6.1003   -0.7019    4.2021 H   0  0  0  0  0  0
    5.1487    1.2773    2.0859 H   0  0  0  0  0  0
    4.7804   -0.4338    2.1306 H   0  0  0  0  0  0
    3.4722    0.7411    2.0626 H   0  0  0  0  0  0
    0.1002    1.2553    2.2997 O   0  5  0  0  0  0
    0.0152    3.3203    3.9113 O   0  5  0  0  0  0
  1  2  1  0  0  0
  1  3  1  0  0  0
  1 10  1  0  0  0
  1 11  1  0  0  0
  2  4  1  0  0  0
  2  5  1  0  0  0
  2  6  1  0  0  0
  3  7  1  0  0  0
  3 12  1  0  0  0
  3 13  1  0  0  0
  4 14  1  0  0  0
  4 15  1  0  0  0
  4 16  1  0  0  0
  5 17  1  0  0  0
  5 18  1  0  0  0
  5 19  1  0  0  0
  6 20  1  0  0  0
  6 21  1  0  0  0
  6 22  1  0  0  0
  7  8  1  0  0  0
  8  9  2  0  0  0
  8 23  1  0  0  0
  8 24  1  0  0  0
M  CHG  3   2   1  23  -1  24  -1
M  END
> <i_ionizer_Ion_state_n>
3

> <i_ionizer_Tot_Q>
-1

> <s_ionizer_Ion_centers>
23_24

> <s_ionizer_Ion_types>
OM_OM

> <s_ionizer_Ion_ctrs_in>
9_10

> <r_ionizer_Ionization_penalty>
1.49178e-05

> <r_ionizer_Ionization_penalty_charging>
1.49178e-05

> <r_ionizer_Ionization_penalty_neutral>
0

> <i_mmod_Serial_Number-OPLS-2005>
289

> <i_i_glide_lignum>
287

> <r_i_docking_score>
-4.75623

> <r_i_glide_gscore>
-4.75623

> <r_i_glide_lipo>
-0.432653

> <r_i_glide_hbond>
-0.7

> <r_i_glide_metal>
0

> <r_i_glide_eburp>
-2.40805

> <r_i_glide_evdw>
-13.7951

> <r_i_glide_ecoul>
-7.52814

> <r_i_glide_erotb>
1.08975

> <r_i_glide_esite>
-0.448859

> <r_i_glide_emodel>
-46.4184

> <r_i_glide_energy>
-21.3232

> <r_i_glide_einternal>
8.07716

> <i_i_glide_confnum>
6

> <i_i_glide_posenum>
869

$$$$
C03465
                    3D
 Structure written by MMmdl.
 18 17  0  0  1  0            999 V2000
    0.9649    1.7665    3.3942 C   0  0  0  0  0  0
    1.4268    0.9349    2.1839 C   0  0  1  0  0  0
    0.5898    3.2374    3.1531 C   0  0  0  0  0  0
    0.8994    1.2643    4.5165 O   0  0  0  0  0  0
    2.6907    0.1055    2.5036 C   0  0  0  0  0  0
    0.2762    0.0856    1.6098 C   0  0  0  0  0  0
   -0.3005    3.7001    3.9000 O   0  0  0  0  0  0
    2.4888   -0.9072    3.6389 C   0  0  0  0  0  0
    1.6992    1.6639    1.4192 H   0  0  0  0  0  0
    3.0081   -0.4391    1.6127 H   0  0  0  0  0  0
    3.5177    0.7692    2.7600 H   0  0  0  0  0  0
    0.5280   -0.3038    0.6236 H   0  0  0  0  0  0
    0.0468   -0.7655    2.2522 H   0  0  0  0  0  0
   -0.6363    0.6731    1.4999 H   0  0  0  0  0  0
    3.3945   -1.4925    3.7986 H   0  0  0  0  0  0
    2.2486   -0.4116    4.5794 H   0  0  0  0  0  0
    1.6815   -1.6027    3.4083 H   0  0  0  0  0  0
    1.2176    3.8152    2.2384 O   0  5  0  0  0  0
  1  2  1  0  0  0
  1  3  1  0  0  0
  1  4  2  0  0  0
  2  5  1  0  0  0
  2  6  1  0  0  0
  2  9  1  0  0  0
  3  7  2  0  0  0
  3 18  1  0  0  0
  5  8  1  0  0  0
  5 10  1  0  0  0
  5 11  1  0  0  0
  6 12  1  0  0  0
  6 13  1  0  0  0
  6 14  1  0  0  0
  8 15  1  0  0  0
  8 16  1  0  0  0
  8 17  1  0  0  0
M  CHG  1  18  -1
M  END
> <i_ionizer_Ion_state_n>
1

> <i_ionizer_Tot_Q>
-1

> <s_ionizer_Ion_centers>
18

> <s_ionizer_Ion_types>
OM

> <s_ionizer_Ion_ctrs_in>
7

> <r_ionizer_Ionization_penalty>
0.00059219

> <r_ionizer_Ionization_penalty_charging>
0.00059219

> <r_ionizer_Ionization_penalty_neutral>
0

> <s_st_Chirality_1>
2_R_1_5_6_9

> <i_mmod_Serial_Number-OPLS-2005>
548

> <i_i_glide_lignum>
542

> <r_i_docking_score>
-4.75193

> <r_i_glide_gscore>
-4.75193

> <r_i_glide_lipo>
-0.37572

> <r_i_glide_hbond>
-0.7

> <r_i_glide_metal>
0

> <r_i_glide_eburp>
-2.5

> <r_i_glide_evdw>
-14.23

> <r_i_glide_ecoul>
-4.99829

> <r_i_glide_erotb>
0.946266

> <r_i_glide_esite>
-0.484247

> <r_i_glide_emodel>
-38.0296

> <r_i_glide_energy>
-19.2283

> <r_i_glide_einternal>
1.7079

> <i_i_glide_confnum>
3

> <i_i_glide_posenum>
31

$$$$
C01697
                    3D
 Structure written by MMmdl.
 26 25  0  0  1  0            999 V2000
    4.4927   -0.0170    0.5429 C   0  0  1  0  0  0
    4.0456    0.4111    1.9713 C   0  0  1  0  0  0
    5.7711   -0.8941    0.5054 C   0  0  1  0  0  0
    3.4261   -0.6938   -0.0995 O   0  0  0  0  0  0
    2.9887   -0.5170    2.6260 C   0  0  1  0  0  0
    5.1867    0.4997    2.8078 O   0  0  0  0  0  0
    6.3946   -0.9851   -0.9028 C   0  0  0  0  0  0
    6.7411   -0.3149    1.3590 O   0  0  0  0  0  0
    2.6072   -0.0766    4.0545 C   0  0  0  0  0  0
    1.8083   -0.4829    1.8461 O   0  0  0  0  0  0
    5.7022   -1.9277   -1.6966 O   0  0  0  0  0  0
    3.7631    0.1029    4.8470 O   0  0  0  0  0  0
    4.6915    0.8812   -0.0433 H   0  0  0  0  0  0
    3.6187    1.4131    1.9114 H   0  0  0  0  0  0
    5.5372   -1.8965    0.8671 H   0  0  0  0  0  0
    3.5941   -0.7004   -1.0292 H   0  0  0  0  0  0
    3.3652   -1.5409    2.6468 H   0  0  0  0  0  0
    5.4773   -0.3737    3.0205 H   0  0  0  0  0  0
    6.3270   -0.0252   -1.4149 H   0  0  0  0  0  0
    7.4527   -1.2457   -0.8543 H   0  0  0  0  0  0
    7.4023   -0.9641    1.5428 H   0  0  0  0  0  0
    2.0852    0.8799    4.0345 H   0  0  0  0  0  0
    1.9370   -0.7945    4.5294 H   0  0  0  0  0  0
    1.5006    0.4095    1.8046 H   0  0  0  0  0  0
    4.9256   -1.5169   -2.0436 H   0  0  0  0  0  0
    4.0903   -0.7456    5.1032 H   0  0  0  0  0  0
  1  2  1  0  0  0
  1  3  1  0  0  0
  1  4  1  0  0  0
  1 13  1  0  0  0
  2  5  1  0  0  0
  2  6  1  0  0  0
  2 14  1  0  0  0
  3  7  1  0  0  0
  3  8  1  0  0  0
  3 15  1  0  0  0
  4 16  1  0  0  0
  5  9  1  0  0  0
  5 10  1  0  0  0
  5 17  1  0  0  0
  6 18  1  0  0  0
  7 11  1  0  0  0
  7 19  1  0  0  0
  7 20  1  0  0  0
  8 21  1  0  0  0
  9 12  1  0  0  0
  9 22  1  0  0  0
  9 23  1  0  0  0
 10 24  1  0  0  0
 11 25  1  0  0  0
 12 26  1  0  0  0
M  END
> <i_ionizer_Ion_state_n>
0

> <i_ionizer_Tot_Q>
0

> <s_ionizer_Ion_centers>


> <s_ionizer_Ion_types>


> <s_ionizer_Ion_ctrs_in>


> <r_ionizer_Ionization_penalty>
0

> <r_ionizer_Ionization_penalty_charging>
0

> <r_ionizer_Ionization_penalty_neutral>
0

> <s_st_Chirality_1>
1_R_4_2_3_13

> <s_st_Chirality_2>
2_R_6_1_5_14

> <s_st_Chirality_3>
3_R_8_1_7_15

> <s_st_Chirality_4>
5_R_10_2_9_17

> <i_mmod_Serial_Number-OPLS-2005>
454

> <i_i_glide_lignum>
450

> <r_i_docking_score>
-4.74779

> <r_i_glide_gscore>
-4.74779

> <r_i_glide_lipo>
-0.630876

> <r_i_glide_hbond>
-1.55008

> <r_i_glide_metal>
0

> <r_i_glide_eburp>
-2.40777

> <r_i_glide_evdw>
-10.4017

> <r_i_glide_ecoul>
-19.1635

> <r_i_glide_erotb>
2.72346

> <r_i_glide_esite>
-0.134046

> <r_i_glide_emodel>
-36.3421

> <r_i_glide_energy>
-29.5651

> <r_i_glide_einternal>
6.23014

> <i_i_glide_confnum>
2

> <i_i_glide_posenum>
498

$$$$
C00063
                    3D
 Structure written by MMmdl.
 41 42  0  0  1  0            999 V2000
    2.0807    4.5603    1.1778 C   0  0  2  0  0  0
    0.9764    5.5946    1.2077 N   0  0  0  0  0  0
    1.5770    3.3453    1.6566 O   0  0  0  0  0  0
    3.2333    4.9955    2.0904 C   0  0  1  0  0  0
    0.4797    6.1153   -0.0104 C   0  0  0  0  0  0
    0.4852    6.0811    2.4115 C   0  0  0  0  0  0
    2.3304    2.8906    2.7821 C   0  0  1  0  0  0
    2.9666    4.1652    3.3335 C   0  0  1  0  0  0
    4.4888    4.6933    1.5107 O   0  0  0  0  0  0
   -0.4898    7.0797    0.0668 N   0  0  0  0  0  0
    0.8991    5.7332   -1.1023 O   0  0  0  0  0  0
   -0.4621    7.0406    2.4710 C   0  0  0  0  0  0
    1.3771    2.1895    3.7607 C   0  0  0  0  0  0
    4.1282    3.9657    4.1176 O   0  0  0  0  0  0
   -0.9550    7.5446    1.2101 C   0  0  0  0  0  0
    0.9645    0.9410    3.2458 O   0  0  0  0  0  0
   -1.8964    8.4976    1.1829 N   0  0  0  0  0  0
    2.0761   -0.3208    2.9873 P   0  0  0  0  0  0
    3.0763    0.1558    1.6896 O   0  0  0  0  0  0
    2.9141   -0.4401    4.2027 O   0  0  0  0  0  0
    4.5334    1.0117    1.4511 P   0  0  0  0  0  0
    5.7149   -0.1553    1.0839 O   0  0  0  0  0  0
    4.3880    1.8866    0.2636 O   0  0  0  0  0  0
    7.2841   -0.4805    0.2951 P   0  0  0  0  0  0
    6.9320   -1.5872   -0.7233 O   0  0  0  0  0  0
    2.3701    4.4361    0.1337 H   0  0  0  0  0  0
    3.1951    6.0660    2.2978 H   0  0  0  0  0  0
    0.8607    5.6997    3.3470 H   0  0  0  0  0  0
    3.1062    2.2071    2.4340 H   0  0  0  0  0  0
    2.2279    4.6735    3.9435 H   0  0  0  0  0  0
    5.0379    5.4554    1.6241 H   0  0  0  0  0  0
   -0.8069    7.3900    3.4340 H   0  0  0  0  0  0
    1.8672    2.0332    4.7191 H   0  0  0  0  0  0
    0.5020    2.8103    3.9527 H   0  0  0  0  0  0
    4.7581    3.5036    3.5720 H   0  0  0  0  0  0
   -2.2527    8.8810    2.0461 H   0  0  0  0  0  0
   -2.2270    8.8457    0.2950 H   0  0  0  0  0  0
    1.2999   -1.5000    2.5402 O   0  5  0  0  0  0
    4.8998    1.6322    2.7457 O   0  5  0  0  0  0
    7.6497    0.9010   -0.2952 O   0  5  0  0  0  0
    8.1446   -0.9291    1.4984 O   0  5  0  0  0  0
  1  2  1  0  0  0
  1  3  1  0  0  0
  1  4  1  0  0  0
  1 26  1  0  0  0
  2  5  1  0  0  0
  2  6  1  0  0  0
  3  7  1  0  0  0
  4  8  1  0  0  0
  4  9  1  0  0  0
  4 27  1  0  0  0
  5 10  1  0  0  0
  5 11  2  0  0  0
  6 12  2  0  0  0
  6 28  1  0  0  0
  7 13  1  0  0  0
  7  8  1  0  0  0
  7 29  1  0  0  0
  8 14  1  0  0  0
  8 30  1  0  0  0
  9 31  1  0  0  0
 10 15  2  0  0  0
 12 15  1  0  0  0
 12 32  1  0  0  0
 13 16  1  0  0  0
 13 33  1  0  0  0
 13 34  1  0  0  0
 14 35  1  0  0  0
 15 17  1  0  0  0
 16 18  1  0  0  0
 17 36  1  0  0  0
 17 37  1  0  0  0
 18 19  1  0  0  0
 18 20  2  0  0  0
 18 38  1  0  0  0
 19 21  1  0  0  0
 21 22  1  0  0  0
 21 23  2  0  0  0
 21 39  1  0  0  0
 22 24  1  0  0  0
 24 25  2  0  0  0
 24 40  1  0  0  0
 24 41  1  0  0  0
M  CHG  4  38  -1  39  -1  40  -1  41  -1
M  END
> <i_ionizer_Ion_state_n>
15

> <i_ionizer_Tot_Q>
-4

> <s_ionizer_Ion_centers>
38_39_40_41

> <s_ionizer_Ion_types>
OM_OM_OM_OM

> <s_ionizer_Ion_ctrs_in>
20_24_27_28

> <r_ionizer_Ionization_penalty>
2.98356e-05

> <r_ionizer_Ionization_penalty_charging>
2.98356e-05

> <r_ionizer_Ionization_penalty_neutral>
0

> <s_st_Chirality_1>
1_R_3_2_4_26

> <s_st_Chirality_2>
4_R_9_1_8_27

> <s_st_Chirality_3>
7_R_3_8_13_29

> <s_st_Chirality_4>
8_R_14_4_7_30

> <i_mmod_Serial_Number-OPLS-2005>
44

> <i_i_glide_lignum>
43

> <r_i_docking_score>
-4.74518

> <r_i_glide_gscore>
-4.74518

> <r_i_glide_lipo>
-0.589974

> <r_i_glide_hbond>
-0.767945

> <r_i_glide_metal>
0

> <r_i_glide_eburp>
-0.158113

> <r_i_glide_evdw>
-26.3238

> <r_i_glide_ecoul>
-12.0284

> <r_i_glide_erotb>
0.706363

> <r_i_glide_esite>
-0.626757

> <r_i_glide_emodel>
-77.1635

> <r_i_glide_energy>
-38.3523

> <r_i_glide_einternal>
5.36454

> <i_i_glide_confnum>
28

> <i_i_glide_posenum>
971

$$$$
C00794
                    3D
 Structure written by MMmdl.
 26 25  0  0  1  0            999 V2000
    6.2554   -0.9157   -0.7908 C   0  0  0  0  0  0
    5.7045   -1.9514   -1.5797 O   0  0  0  0  0  0
    5.5653   -0.8621    0.5887 C   0  0  2  0  0  0
    4.2972    0.0314    0.5962 C   0  0  2  0  0  0
    3.8008    0.4377    2.0162 C   0  0  2  0  0  0
    6.5069   -0.3307    1.5031 O   0  0  0  0  0  0
    3.2598   -0.6320   -0.1018 O   0  0  0  0  0  0
    4.8847    0.7566    2.8703 O   0  0  0  0  0  0
    2.8410   -0.5472    2.7347 C   0  0  2  0  0  0
    1.6260   -0.6660    2.0187 O   0  0  0  0  0  0
    2.5268   -0.1267    4.1841 C   0  0  0  0  0  0
    3.7189    0.0970    4.9090 O   0  0  0  0  0  0
    6.1035    0.0145   -1.3384 H   0  0  0  0  0  0
    7.3329   -1.0528   -0.6912 H   0  0  0  0  0  0
    4.9404   -1.6173   -2.0240 H   0  0  0  0  0  0
    5.3004   -1.8727    0.9040 H   0  0  0  0  0  0
    4.5239    0.9403    0.0380 H   0  0  0  0  0  0
    3.2423    1.3681    1.9105 H   0  0  0  0  0  0
    7.1745   -0.9817    1.6553 H   0  0  0  0  0  0
    3.5175   -0.7033   -1.0104 H   0  0  0  0  0  0
    5.2680   -0.0463    3.1892 H   0  0  0  0  0  0
    3.3167   -1.5293    2.7512 H   0  0  0  0  0  0
    1.2274    0.1906    1.9704 H   0  0  0  0  0  0
    1.9605    0.8051    4.1927 H   0  0  0  0  0  0
    1.9202   -0.8749    4.6960 H   0  0  0  0  0  0
    4.1018   -0.7378    5.1311 H   0  0  0  0  0  0
  1  2  1  0  0  0
  1  3  1  0  0  0
  1 13  1  0  0  0
  1 14  1  0  0  0
  2 15  1  0  0  0
  3  4  1  0  0  0
  3  6  1  0  0  0
  3 16  1  0  0  0
  4  7  1  0  0  0
  4  5  1  0  0  0
  4 17  1  0  0  0
  5  8  1  0  0  0
  5  9  1  0  0  0
  5 18  1  0  0  0
  6 19  1  0  0  0
  7 20  1  0  0  0
  8 21  1  0  0  0
  9 10  1  0  0  0
  9 11  1  0  0  0
  9 22  1  0  0  0
 10 23  1  0  0  0
 11 12  1  0  0  0
 11 24  1  0  0  0
 11 25  1  0  0  0
 12 26  1  0  0  0
M  END
> <i_ionizer_Ion_state_n>
0

> <i_ionizer_Tot_Q>
0

> <s_ionizer_Ion_centers>


> <s_ionizer_Ion_types>


> <s_ionizer_Ion_ctrs_in>


> <r_ionizer_Ionization_penalty>
0

> <r_ionizer_Ionization_penalty_charging>
0

> <r_ionizer_Ionization_penalty_neutral>
0

> <s_st_Chirality_1>
3_R_6_4_1_16

> <s_st_Chirality_2>
4_R_7_5_3_17

> <s_st_Chirality_3>
5_R_8_4_9_18

> <s_st_Chirality_4>
9_R_10_5_11_22

> <i_mmod_Serial_Number-OPLS-2005>
337

> <i_i_glide_lignum>
334

> <r_i_docking_score>
-4.74376

> <r_i_glide_gscore>
-4.74376

> <r_i_glide_lipo>
-0.627524

> <r_i_glide_hbond>
-1.49836

> <r_i_glide_metal>
0

> <r_i_glide_eburp>
-2.40777

> <r_i_glide_evdw>
-11.5242

> <r_i_glide_ecoul>
-18.8476

> <r_i_glide_erotb>
2.72346

> <r_i_glide_esite>
-0.126868

> <r_i_glide_emodel>
-36.9336

> <r_i_glide_energy>
-30.3718

> <r_i_glide_einternal>
6.17752

> <i_i_glide_confnum>
4

> <i_i_glide_posenum>
73

$$$$
C05802
                    3D
 Structure written by MMmdl.
 95 95  0  0  1  0            999 V2000
   -9.3154   12.4146    5.1331 C   0  0  0  0  0  0
   -8.6016   12.0032    6.4087 C   0  0  0  0  0  0
   -9.0276   12.1708    7.6776 C   0  0  0  0  0  0
   -8.2021   11.6680    8.8523 C   0  0  0  0  0  0
  -10.3337   12.8522    8.0583 C   0  0  0  0  0  0
   -6.9560   10.8829    8.4148 C   0  0  0  0  0  0
   -5.3274   10.9452    4.2955 C   0  0  0  0  0  0
   -6.6346   11.6734    4.5539 C   0  0  0  0  0  0
   -7.1021   12.7691    3.9211 C   0  0  0  0  0  0
   -8.4569   13.3607    4.2797 C   0  0  0  0  0  0
   -6.3550   13.5034    2.8177 C   0  0  0  0  0  0
   -2.0733    8.1294    3.9422 C   0  0  0  0  0  0
   -3.1564    9.1439    4.2693 C   0  0  0  0  0  0
   -3.3719    9.7794    5.4401 C   0  0  0  0  0  0
   -4.4955   10.7958    5.5785 C   0  0  0  0  0  0
   -2.5454    9.5704    6.7008 C   0  0  0  0  0  0
    0.0086    4.6461    2.4672 C   0  0  0  0  0  0
   -0.7007    5.9513    2.7881 C   0  0  0  0  0  0
   -0.8788    7.0195    1.9828 C   0  0  0  0  0  0
   -1.5932    8.2643    2.4884 C   0  0  0  0  0  0
   -0.3967    7.1041    0.5417 C   0  0  0  0  0  0
    1.8874    0.4515    4.0539 C   0  0  0  0  0  0
    1.3364    1.8610    4.1634 C   0  0  0  0  0  0
    1.6374    2.8947    3.3531 C   0  0  0  0  0  0
    1.0169    4.2673    3.5637 C   0  0  0  0  0  0
    2.6039    2.7893    2.1832 C   0  0  0  0  0  0
   -6.1378   10.4167    9.6064 C   0  0  0  0  0  0
   -4.8362   10.6633    9.8608 C   0  0  0  0  0  0
   -4.1734   10.1443   11.1222 C   0  0  0  0  0  0
   -3.9099   11.4625    8.9588 C   0  0  0  0  0  0
    2.6896    0.2160    2.7838 C   0  0  0  0  0  0
    4.0951    0.0592    2.8269 C   0  0  0  0  0  0
    2.0220    0.1569    1.5438 C   0  0  0  0  0  0
    4.8348   -0.1577    1.6427 C   0  0  0  0  0  0
    4.7608    0.1180    4.0187 O   0  0  0  0  0  0
    2.7484   -0.0584    0.3592 C   0  0  0  0  0  0
    4.1461   -0.2156    0.4051 C   0  0  0  0  0  0
    6.2017   -0.3009    1.7696 O   0  0  0  0  0  0
    6.9581   -0.5845    0.6015 C   0  0  0  0  0  0
  -10.2822   12.8632    5.3525 H   0  0  0  0  0  0
   -9.5331   11.5070    4.5692 H   0  0  0  0  0  0
   -7.6475   11.5228    6.2465 H   0  0  0  0  0  0
   -7.8979   12.5119    9.4733 H   0  0  0  0  0  0
   -8.8362   11.0419    9.4815 H   0  0  0  0  0  0
  -11.0840   12.1105    8.3319 H   0  0  0  0  0  0
  -10.1773   13.5078    8.9152 H   0  0  0  0  0  0
  -10.7393   13.4704    7.2596 H   0  0  0  0  0  0
   -7.2323   10.0484    7.7744 H   0  0  0  0  0  0
   -6.3158   11.5215    7.8054 H   0  0  0  0  0  0
   -5.5715    9.9591    3.8991 H   0  0  0  0  0  0
   -4.7506   11.4403    3.5169 H   0  0  0  0  0  0
   -7.2359   11.2381    5.3391 H   0  0  0  0  0  0
   -8.9824   13.6125    3.3577 H   0  0  0  0  0  0
   -8.3154   14.3012    4.8145 H   0  0  0  0  0  0
   -5.2913   13.2735    2.7986 H   0  0  0  0  0  0
   -6.7762   13.2561    1.8433 H   0  0  0  0  0  0
   -6.4416   14.5808    2.9605 H   0  0  0  0  0  0
   -1.2237    8.2236    4.6138 H   0  0  0  0  0  0
   -2.4876    7.1332    4.1005 H   0  0  0  0  0  0
   -3.8165    9.3642    3.4427 H   0  0  0  0  0  0
   -4.0635   11.7577    5.8575 H   0  0  0  0  0  0
   -5.1507   10.5081    6.4021 H   0  0  0  0  0  0
   -1.9825    8.6397    6.6980 H   0  0  0  0  0  0
   -1.8433   10.3933    6.8343 H   0  0  0  0  0  0
   -3.1978    9.5387    7.5737 H   0  0  0  0  0  0
   -0.7482    3.8659    2.3797 H   0  0  0  0  0  0
    0.5173    4.6954    1.5081 H   0  0  0  0  0  0
   -1.0971    6.0004    3.7921 H   0  0  0  0  0  0
   -2.4467    8.4814    1.8444 H   0  0  0  0  0  0
   -0.9191    9.1166    2.3944 H   0  0  0  0  0  0
   -0.1927    6.1327    0.0971 H   0  0  0  0  0  0
   -1.1573    7.5784   -0.0790 H   0  0  0  0  0  0
    0.5110    7.7043    0.4805 H   0  0  0  0  0  0
    2.5135    0.2384    4.9212 H   0  0  0  0  0  0
    1.0557   -0.2528    4.0929 H   0  0  0  0  0  0
    0.6417    2.0227    4.9752 H   0  0  0  0  0  0
    1.8157    5.0085    3.6110 H   0  0  0  0  0  0
    0.5208    4.2933    4.5351 H   0  0  0  0  0  0
    3.1116    1.8265    2.1431 H   0  0  0  0  0  0
    2.0780    2.9238    1.2384 H   0  0  0  0  0  0
    3.3699    3.5613    2.2597 H   0  0  0  0  0  0
   -6.6922    9.8189   10.3154 H   0  0  0  0  0  0
   -3.3448    9.4824   10.8697 H   0  0  0  0  0  0
   -3.7822   10.9740   11.7115 H   0  0  0  0  0  0
   -4.8728    9.5869   11.7461 H   0  0  0  0  0  0
   -2.9870   10.9068    8.7911 H   0  0  0  0  0  0
   -4.3333   11.6765    7.9799 H   0  0  0  0  0  0
   -3.6509   12.4091    9.4334 H   0  0  0  0  0  0
    0.9496    0.2780    1.4962 H   0  0  0  0  0  0
    4.4744   -0.5576    4.6149 H   0  0  0  0  0  0
    2.2320   -0.1029   -0.5884 H   0  0  0  0  0  0
    4.6675   -0.3789   -0.5257 H   0  0  0  0  0  0
    8.0117   -0.6685    0.8672 H   0  0  0  0  0  0
    6.6559   -1.5307    0.1505 H   0  0  0  0  0  0
    6.8673    0.2139   -0.1362 H   0  0  0  0  0  0
  1 10  1  0  0  0
  1  2  1  0  0  0
  1 40  1  0  0  0
  1 41  1  0  0  0
  2  3  2  0  0  0
  2 42  1  0  0  0
  3  4  1  0  0  0
  3  5  1  0  0  0
  4  6  1  0  0  0
  4 43  1  0  0  0
  4 44  1  0  0  0
  5 45  1  0  0  0
  5 46  1  0  0  0
  5 47  1  0  0  0
  6 27  1  0  0  0
  6 48  1  0  0  0
  6 49  1  0  0  0
  7  8  1  0  0  0
  7 15  1  0  0  0
  7 50  1  0  0  0
  7 51  1  0  0  0
  8  9  2  0  0  0
  8 52  1  0  0  0
  9 11  1  0  0  0
  9 10  1  0  0  0
 10 53  1  0  0  0
 10 54  1  0  0  0
 11 55  1  0  0  0
 11 56  1  0  0  0
 11 57  1  0  0  0
 12 20  1  0  0  0
 12 13  1  0  0  0
 12 58  1  0  0  0
 12 59  1  0  0  0
 13 14  2  0  0  0
 13 60  1  0  0  0
 14 15  1  0  0  0
 14 16  1  0  0  0
 15 61  1  0  0  0
 15 62  1  0  0  0
 16 63  1  0  0  0
 16 64  1  0  0  0
 16 65  1  0  0  0
 17 25  1  0  0  0
 17 18  1  0  0  0
 17 66  1  0  0  0
 17 67  1  0  0  0
 18 19  2  0  0  0
 18 68  1  0  0  0
 19 21  1  0  0  0
 19 20  1  0  0  0
 20 69  1  0  0  0
 20 70  1  0  0  0
 21 71  1  0  0  0
 21 72  1  0  0  0
 21 73  1  0  0  0
 22 23  1  0  0  0
 22 31  1  0  0  0
 22 74  1  0  0  0
 22 75  1  0  0  0
 23 24  2  0  0  0
 23 76  1  0  0  0
 24 25  1  0  0  0
 24 26  1  0  0  0
 25 77  1  0  0  0
 25 78  1  0  0  0
 26 79  1  0  0  0
 26 80  1  0  0  0
 26 81  1  0  0  0
 27 28  2  0  0  0
 27 82  1  0  0  0
 28 29  1  0  0  0
 28 30  1  0  0  0
 29 83  1  0  0  0
 29 84  1  0  0  0
 29 85  1  0  0  0
 30 86  1  0  0  0
 30 87  1  0  0  0
 30 88  1  0  0  0
 31 32  2  0  0  0
 31 33  1  0  0  0
 32 34  1  0  0  0
 32 35  1  0  0  0
 33 36  2  0  0  0
 33 89  1  0  0  0
 34 37  2  0  0  0
 34 38  1  0  0  0
 35 90  1  0  0  0
 36 37  1  0  0  0
 36 91  1  0  0  0
 37 92  1  0  0  0
 38 39  1  0  0  0
 39 93  1  0  0  0
 39 94  1  0  0  0
 39 95  1  0  0  0
M  END
> <i_ionizer_Ion_state_n>
0

> <i_ionizer_Tot_Q>
0

> <s_ionizer_Ion_centers>


> <s_ionizer_Ion_types>


> <s_ionizer_Ion_ctrs_in>


> <r_ionizer_Ionization_penalty>
0.00059219

> <r_ionizer_Ionization_penalty_charging>
0

> <r_ionizer_Ionization_penalty_neutral>
0.00059219

> <s_st_EZ_1>
1_2_3_4_E

> <s_st_EZ_2>
7_8_9_10_E

> <s_st_EZ_3>
12_13_14_15_E

> <s_st_EZ_4>
17_18_19_20_E

> <s_st_EZ_5>
22_23_24_25_E

> <i_mmod_Serial_Number-OPLS-2005>
793

> <i_i_glide_lignum>
784

> <r_i_docking_score>
-4.73699

> <r_i_glide_gscore>
-4.73699

> <r_i_glide_lipo>
-2.0532

> <r_i_glide_hbond>
-0.45

> <r_i_glide_metal>
0

> <r_i_glide_eburp>
0

> <r_i_glide_evdw>
-38.7432

> <r_i_glide_ecoul>
-4.62189

> <r_i_glide_erotb>
1.41153

> <r_i_glide_esite>
-0.0836722

> <r_i_glide_emodel>
-61.9999

> <r_i_glide_energy>
-43.3651

> <r_i_glide_einternal>
8.89293

> <i_i_glide_confnum>
360

> <i_i_glide_posenum>
202

$$$$
C02222
                    3D
 Structure written by MMmdl.
 15 14  0  0  1  0            999 V2000
    2.3927    2.0271    2.6127 C   0  0  0  0  0  0
    2.0148    3.2569    1.8801 C   0  0  0  0  0  0
    1.2724    1.2659    3.3251 C   0  0  0  0  0  0
    3.5416    1.5935    2.7001 O   0  0  0  0  0  0
    0.8951    3.9839    2.0814 C   0  0  0  0  0  0
    0.9492   -0.0239    2.5712 C   0  0  0  0  0  0
   -0.2639    3.7421    3.0874 C   0  0  0  0  0  0
    0.1055    0.0501    1.6506 O   0  0  0  0  0  0
   -1.4024    4.0834    2.6995 O   0  0  0  0  0  0
    2.7048    3.5909    1.1191 H   0  0  0  0  0  0
    1.5762    1.0285    4.3449 H   0  0  0  0  0  0
    0.3817    1.8916    3.3855 H   0  0  0  0  0  0
    0.7769    4.8577    1.4588 H   0  0  0  0  0  0
    1.5302   -1.0666    2.9442 O   0  5  0  0  0  0
    0.0674    3.2841    4.2024 O   0  5  0  0  0  0
  1  2  1  0  0  0
  1  3  1  0  0  0
  1  4  2  0  0  0
  2  5  2  0  0  0
  2 10  1  0  0  0
  3  6  1  0  0  0
  3 11  1  0  0  0
  3 12  1  0  0  0
  5  7  1  0  0  0
  5 13  1  0  0  0
  6  8  2  0  0  0
  6 14  1  0  0  0
  7  9  2  0  0  0
  7 15  1  0  0  0
M  CHG  2  14  -1  15  -1
M  END
> <i_ionizer_Ion_state_n>
3

> <i_ionizer_Tot_Q>
-2

> <s_ionizer_Ion_centers>
14_15

> <s_ionizer_Ion_types>
OM_OM

> <s_ionizer_Ion_ctrs_in>
8_10

> <r_ionizer_Ionization_penalty>
0.00118438

> <r_ionizer_Ionization_penalty_charging>
0.00118438

> <r_ionizer_Ionization_penalty_neutral>
0

> <s_st_EZ_1>
1_2_5_7_Z

> <i_mmod_Serial_Number-OPLS-2005>
480

> <i_i_glide_lignum>
475

> <r_i_docking_score>
-4.72968

> <r_i_glide_gscore>
-4.72968

> <r_i_glide_lipo>
-0.213603

> <r_i_glide_hbond>
-1.46115

> <r_i_glide_metal>
0

> <r_i_glide_eburp>
-2.9

> <r_i_glide_evdw>
-13.1591

> <r_i_glide_ecoul>
-8.34103

> <r_i_glide_erotb>
2.10129

> <r_i_glide_esite>
-0.369381

> <r_i_glide_emodel>
-55.7061

> <r_i_glide_energy>
-21.5001

> <r_i_glide_einternal>
4.23644

> <i_i_glide_confnum>
1

> <i_i_glide_posenum>
19

$$$$
C04853
                    3D
 Structure written by MMmdl.
 56 55  0  0  1  0            999 V2000
    4.3974    2.3711    4.6017 C   0  0  0  0  0  0
    4.0154    3.5817    4.1523 C   0  0  0  0  0  0
    4.2098    1.0274    3.9171 C   0  0  2  0  0  0
    3.3221    3.8441    2.9047 C   0  0  0  0  0  0
    2.9743    0.2930    4.4669 C   0  0  0  0  0  0
    5.3566    0.2337    4.1385 O   0  0  0  0  0  0
    2.5027    4.8959    2.7427 C   0  0  0  0  0  0
    2.5268   -0.8917    3.5939 C   0  0  0  0  0  0
    1.8050    5.1638    1.5024 C   0  0  0  0  0  0
    2.0696   -0.4462    2.1906 C   0  0  0  0  0  0
    1.0162    6.2405    1.3319 C   0  0  0  0  0  0
    0.6853    0.2154    2.1866 C   0  0  0  0  0  0
    0.2421    6.6095    0.0740 C   0  0  1  0  0  0
   -0.2262   -0.3000    1.5011 O   0  0  0  0  0  0
   -1.0003    7.4530    0.4093 C   0  0  0  0  0  0
    1.0518    7.3026   -0.8579 O   0  0  0  0  0  0
   -2.0688    6.6610    1.1455 C   0  0  0  0  0  0
   -2.7808    7.0556    2.2175 C   0  0  0  0  0  0
   -2.6658    8.3735    2.9623 C   0  0  0  0  0  0
   -2.1404    8.1786    4.3910 C   0  0  0  0  0  0
   -2.0868    9.4930    5.1832 C   0  0  0  0  0  0
   -3.4641   10.1594    5.3144 C   0  0  0  0  0  0
   -4.5131    9.2241    5.9301 C   0  0  0  0  0  0
   -4.6993    8.1010    5.0961 O   0  0  0  0  0  0
    4.8956    2.3261    5.5595 H   0  0  0  0  0  0
    4.2434    4.4281    4.7842 H   0  0  0  0  0  0
    4.1058    1.1570    2.8413 H   0  0  0  0  0  0
    3.4556    3.1766    2.0671 H   0  0  0  0  0  0
    3.1670   -0.0488    5.4850 H   0  0  0  0  0  0
    2.1472    1.0010    4.5367 H   0  0  0  0  0  0
    5.1066   -0.5122    4.6627 H   0  0  0  0  0  0
    2.3568    5.5726    3.5729 H   0  0  0  0  0  0
    3.3511   -1.6008    3.5028 H   0  0  0  0  0  0
    1.7128   -1.4225    4.0894 H   0  0  0  0  0  0
    1.9294    4.4659    0.6871 H   0  0  0  0  0  0
    2.7876    0.2598    1.7722 H   0  0  0  0  0  0
    2.0413   -1.3041    1.5182 H   0  0  0  0  0  0
    0.8992    6.9305    2.1554 H   0  0  0  0  0  0
   -0.0732    5.6743   -0.3905 H   0  0  0  0  0  0
   -0.7088    8.3263    0.9905 H   0  0  0  0  0  0
   -1.4423    7.8477   -0.5065 H   0  0  0  0  0  0
    1.1329    8.2006   -0.5753 H   0  0  0  0  0  0
   -2.2634    5.6764    0.7456 H   0  0  0  0  0  0
   -3.5208    6.3739    2.6113 H   0  0  0  0  0  0
   -1.9823    9.0121    2.4019 H   0  0  0  0  0  0
   -3.6174    8.9016    2.9818 H   0  0  0  0  0  0
   -2.7775    7.4650    4.9155 H   0  0  0  0  0  0
   -1.1443    7.7354    4.3554 H   0  0  0  0  0  0
   -1.6810    9.3008    6.1772 H   0  0  0  0  0  0
   -1.3960   10.1820    4.6955 H   0  0  0  0  0  0
   -3.3754   11.0580    5.9266 H   0  0  0  0  0  0
   -3.8034   10.4877    4.3310 H   0  0  0  0  0  0
   -4.1960    8.8860    6.9172 H   0  0  0  0  0  0
   -5.4662    9.7402    6.0505 H   0  0  0  0  0  0
   -4.8781    8.4029    4.2185 H   0  0  0  0  0  0
    0.5641    1.2452    2.8848 O   0  5  0  0  0  0
  1  2  2  0  0  0
  1  3  1  0  0  0
  1 25  1  0  0  0
  2  4  1  0  0  0
  2 26  1  0  0  0
  3  5  1  0  0  0
  3  6  1  0  0  0
  3 27  1  0  0  0
  4  7  2  0  0  0
  4 28  1  0  0  0
  5  8  1  0  0  0
  5 29  1  0  0  0
  5 30  1  0  0  0
  6 31  1  0  0  0
  7  9  1  0  0  0
  7 32  1  0  0  0
  8 10  1  0  0  0
  8 33  1  0  0  0
  8 34  1  0  0  0
  9 11  2  0  0  0
  9 35  1  0  0  0
 10 12  1  0  0  0
 10 36  1  0  0  0
 10 37  1  0  0  0
 11 13  1  0  0  0
 11 38  1  0  0  0
 12 14  2  0  0  0
 12 56  1  0  0  0
 13 15  1  0  0  0
 13 16  1  0  0  0
 13 39  1  0  0  0
 15 17  1  0  0  0
 15 40  1  0  0  0
 15 41  1  0  0  0
 16 42  1  0  0  0
 17 18  2  0  0  0
 17 43  1  0  0  0
 18 19  1  0  0  0
 18 44  1  0  0  0
 19 20  1  0  0  0
 19 45  1  0  0  0
 19 46  1  0  0  0
 20 21  1  0  0  0
 20 47  1  0  0  0
 20 48  1  0  0  0
 21 22  1  0  0  0
 21 49  1  0  0  0
 21 50  1  0  0  0
 22 23  1  0  0  0
 22 51  1  0  0  0
 22 52  1  0  0  0
 23 24  1  0  0  0
 23 53  1  0  0  0
 23 54  1  0  0  0
 24 55  1  0  0  0
M  CHG  1  56  -1
M  END
> <i_ionizer_Ion_state_n>
1

> <i_ionizer_Tot_Q>
-1

> <s_ionizer_Ion_centers>
56

> <s_ionizer_Ion_types>
OM

> <s_ionizer_Ion_ctrs_in>
14

> <r_ionizer_Ionization_penalty>
0.00059219

> <r_ionizer_Ionization_penalty_charging>
0.00059219

> <r_ionizer_Ionization_penalty_neutral>
0

> <s_st_Chirality_1>
3_S_6_1_5_27

> <s_st_Chirality_2>
13_R_16_11_15_39

> <s_st_EZ_1>
3_1_2_4_Z

> <s_st_EZ_2>
7_9_11_13_E

> <s_st_EZ_3>
15_17_18_19_Z

> <i_mmod_Serial_Number-OPLS-2005>
618

> <i_i_glide_lignum>
611

> <r_i_docking_score>
-4.72575

> <r_i_glide_gscore>
-4.72575

> <r_i_glide_lipo>
-1.4154

> <r_i_glide_hbond>
-0.730583

> <r_i_glide_metal>
0

> <r_i_glide_eburp>
-1.12525

> <r_i_glide_evdw>
-33.528

> <r_i_glide_ecoul>
-7.69366

> <r_i_glide_erotb>
2.47045

> <r_i_glide_esite>
-0.473359

> <r_i_glide_emodel>
-68.3895

> <r_i_glide_energy>
-41.2217

> <r_i_glide_einternal>
11.7666

> <i_i_glide_confnum>
547

> <i_i_glide_posenum>
247

$$$$
C04895
                    3D
 Structure written by MMmdl.
 42 43  0  0  1  0            999 V2000
   -3.7884    9.1179    5.4240 C   0  0  0  0  0  0
   -2.6421    9.8035    5.1733 C   0  0  0  0  0  0
   -4.2604    8.1646    4.5453 N   0  0  0  0  0  0
   -4.5769    9.3231    6.5573 N   0  0  0  0  0  0
   -1.8990    9.5813    4.0044 N   0  0  0  0  0  0
   -2.1976   10.8087    6.1478 C   0  0  0  0  0  0
   -3.5668    7.9005    3.2904 C   0  0  0  0  0  0
   -4.1976   10.2275    7.4036 C   0  0  0  0  0  0
   -2.2934    8.7456    3.1181 C   0  0  0  0  0  0
   -3.0229   10.9654    7.2109 N   0  0  0  0  0  0
   -1.1640   11.4694    6.0547 O   0  0  0  0  0  0
   -4.8630   10.5670    8.5632 N   0  0  0  0  0  0
   -1.5255    8.5263    1.8141 C   0  0  1  0  0  0
   -0.3735    7.4976    1.9637 C   0  0  1  0  0  0
   -2.3973    8.0998    0.7818 O   0  0  0  0  0  0
   -0.6154    6.1564    1.2374 C   0  0  0  0  0  0
    0.8519    8.0298    1.5007 O   0  0  0  0  0  0
   -0.8882    5.1014    2.1478 O   0  0  0  0  0  0
    0.3429    4.3352    3.0547 P   0  0  0  0  0  0
    1.3039    3.5394    1.9007 O   0  0  0  0  0  0
   -0.2987    3.3033    3.9019 O   0  0  0  0  0  0
    2.6942    2.5608    1.9530 P   0  0  0  0  0  0
    2.0700    0.9757    1.9399 O   0  0  0  0  0  0
    3.4458    2.7529    0.6888 O   0  0  0  0  0  0
    1.0723   -0.2362    2.7937 P   0  0  0  0  0  0
   -0.2049   -0.2917    1.9262 O   0  0  0  0  0  0
   -5.1480    7.7150    4.7138 H   0  0  0  0  0  0
   -3.3051    6.8432    3.2491 H   0  0  0  0  0  0
   -4.2560    8.0974    2.4706 H   0  0  0  0  0  0
   -2.7631   11.6603    7.8935 H   0  0  0  0  0  0
   -5.7333   10.1377    8.8412 H   0  0  0  0  0  0
   -4.5585   11.2909    9.1970 H   0  0  0  0  0  0
   -1.1090    9.4821    1.4944 H   0  0  0  0  0  0
   -0.2092    7.3087    3.0163 H   0  0  0  0  0  0
   -3.0084    8.8082    0.6006 H   0  0  0  0  0  0
   -1.4332    6.2443    0.5222 H   0  0  0  0  0  0
    0.2645    5.8721    0.6588 H   0  0  0  0  0  0
    0.7166    8.9661    1.3833 H   0  0  0  0  0  0
    1.1536    5.3919    3.7011 O   0  5  0  0  0  0
    3.3778    2.7901    3.2481 O   0  5  0  0  0  0
    1.9701   -1.4960    2.7585 O   0  5  0  0  0  0
    0.8999    0.4102    4.1873 O   0  5  0  0  0  0
  1  2  2  0  0  0
  1  3  1  0  0  0
  1  4  1  0  0  0
  2  5  1  0  0  0
  2  6  1  0  0  0
  3  7  1  0  0  0
  3 27  1  0  0  0
  4  8  2  0  0  0
  5  9  2  0  0  0
  6 10  1  0  0  0
  6 11  2  0  0  0
  7  9  1  0  0  0
  7 28  1  0  0  0
  7 29  1  0  0  0
  8 12  1  0  0  0
  8 10  1  0  0  0
  9 13  1  0  0  0
 10 30  1  0  0  0
 12 31  1  0  0  0
 12 32  1  0  0  0
 13 14  1  0  0  0
 13 15  1  0  0  0
 13 33  1  0  0  0
 14 16  1  0  0  0
 14 17  1  0  0  0
 14 34  1  0  0  0
 15 35  1  0  0  0
 16 18  1  0  0  0
 16 36  1  0  0  0
 16 37  1  0  0  0
 17 38  1  0  0  0
 18 19  1  0  0  0
 19 20  1  0  0  0
 19 21  2  0  0  0
 19 39  1  0  0  0
 20 22  1  0  0  0
 22 23  1  0  0  0
 22 24  2  0  0  0
 22 40  1  0  0  0
 23 25  1  0  0  0
 25 26  2  0  0  0
 25 41  1  0  0  0
 25 42  1  0  0  0
M  CHG  4  39  -1  40  -1  41  -1  42  -1
M  END
> <i_ionizer_Ion_state_n>
15

> <i_ionizer_Tot_Q>
-4

> <s_ionizer_Ion_centers>
39_40_41_42

> <s_ionizer_Ion_types>
OM_OM_OM_OM

> <s_ionizer_Ion_ctrs_in>
21_25_28_29

> <r_ionizer_Ionization_penalty>
2.98356e-05

> <r_ionizer_Ionization_penalty_charging>
2.98356e-05

> <r_ionizer_Ionization_penalty_neutral>
0

> <s_st_Chirality_1>
13_S_15_14_9_33

> <s_st_Chirality_2>
14_R_17_13_16_34

> <s_st_EZ_1>
2_5_9_13_E

> <i_mmod_Serial_Number-OPLS-2005>
620

> <i_i_glide_lignum>
613

> <r_i_docking_score>
-4.72378

> <r_i_glide_gscore>
-4.72378

> <r_i_glide_lipo>
-0.489737

> <r_i_glide_hbond>
-2.10629

> <r_i_glide_metal>
0

> <r_i_glide_eburp>
0.0391933

> <r_i_glide_evdw>
-27.0401

> <r_i_glide_ecoul>
-15.9544

> <r_i_glide_erotb>
0.77152

> <r_i_glide_esite>
0.820189

> <r_i_glide_emodel>
-102.249

> <r_i_glide_energy>
-42.9946

> <r_i_glide_einternal>
13.728

> <i_i_glide_confnum>
70

> <i_i_glide_posenum>
313

$$$$
C00255
                    3D
 Structure written by MMmdl.
 47 49  0  0  1  0            999 V2000
    2.6318    1.0938    1.2101 N   0  0  0  0  0  0
    3.8431    0.7765    0.6528 C   0  0  0  0  0  0
    2.2512    2.4242    1.4886 C   0  0  0  0  0  0
    1.6593    0.0335    1.5498 C   0  0  0  0  0  0
    4.7818    1.8288    0.4519 C   0  0  0  0  0  0
    4.2151   -0.5339    0.2538 C   0  0  0  0  0  0
    3.3254    3.4623    1.2287 C   0  0  0  0  0  0
    1.0731    2.7554    1.9418 N   0  0  0  0  0  0
    1.7970   -0.4747    3.0122 C   0  0  2  0  0  0
    4.4803    3.1604    0.7766 N   0  0  0  0  0  0
    6.0469    1.5584   -0.1051 C   0  0  0  0  0  0
    5.4817   -0.8010   -0.3064 C   0  0  0  0  0  0
    2.9398    4.8865    1.5416 C   0  0  0  0  0  0
    0.7426    4.0896    2.2120 C   0  0  0  0  0  0
    2.2672    0.6169    4.0170 C   0  0  2  0  0  0
    2.7596   -1.5092    2.9872 O   0  0  0  0  0  0
    6.4072    0.2513   -0.4831 C   0  0  0  0  0  0
    5.8295   -2.2219   -0.7155 C   0  0  0  0  0  0
    1.6800    5.0480    2.0013 N   0  0  0  0  0  0
    3.7187    5.8261    1.3852 O   0  0  0  0  0  0
   -0.3621    4.4211    2.6334 O   0  0  0  0  0  0
    3.6824    0.3812    4.6238 C   0  0  2  0  0  0
    1.3523    0.6162    5.0986 O   0  0  0  0  0  0
    7.7799   -0.0011   -1.0814 C   0  0  0  0  0  0
    4.4314    1.6934    4.9467 C   0  0  0  0  0  0
    4.4976   -0.3269    3.7077 O   0  0  0  0  0  0
    4.2490    2.6418    3.9150 O   0  0  0  0  0  0
    0.6292    0.3053    1.3268 H   0  0  0  0  0  0
    1.8100   -0.7876    0.8486 H   0  0  0  0  0  0
    3.5403   -1.3678    0.3535 H   0  0  0  0  0  0
    0.8517   -0.8877    3.3661 H   0  0  0  0  0  0
    6.7464    2.3695   -0.2486 H   0  0  0  0  0  0
    2.2246    1.5972    3.5396 H   0  0  0  0  0  0
    3.1023   -1.6070    3.8658 H   0  0  0  0  0  0
    5.0055   -2.9085   -0.5196 H   0  0  0  0  0  0
    6.0554   -2.2678   -1.7811 H   0  0  0  0  0  0
    6.6986   -2.5767   -0.1612 H   0  0  0  0  0  0
    1.4013    5.9946    2.2129 H   0  0  0  0  0  0
    3.5834   -0.2181    5.5306 H   0  0  0  0  0  0
    1.5149   -0.1434    5.6365 H   0  0  0  0  0  0
    7.6885   -0.4005   -2.0916 H   0  0  0  0  0  0
    8.3652    0.9172   -1.1363 H   0  0  0  0  0  0
    8.3359   -0.7159   -0.4744 H   0  0  0  0  0  0
    4.1073    2.1139    5.8997 H   0  0  0  0  0  0
    5.5046    1.5211    5.0253 H   0  0  0  0  0  0
    5.0382   -0.9307    4.1941 H   0  0  0  0  0  0
    4.7510    3.4152    4.1211 H   0  0  0  0  0  0
  1  2  1  0  0  0
  1  3  1  0  0  0
  1  4  1  0  0  0
  2  5  2  0  0  0
  2  6  1  0  0  0
  3  7  1  0  0  0
  3  8  2  0  0  0
  4  9  1  0  0  0
  4 28  1  0  0  0
  4 29  1  0  0  0
  5 10  1  0  0  0
  5 11  1  0  0  0
  6 12  2  0  0  0
  6 30  1  0  0  0
  7 13  1  0  0  0
  7 10  2  0  0  0
  8 14  1  0  0  0
  9 15  1  0  0  0
  9 16  1  0  0  0
  9 31  1  0  0  0
 11 17  2  0  0  0
 11 32  1  0  0  0
 12 18  1  0  0  0
 12 17  1  0  0  0
 13 19  1  0  0  0
 13 20  2  0  0  0
 14 21  2  0  0  0
 14 19  1  0  0  0
 15 22  1  0  0  0
 15 23  1  0  0  0
 15 33  1  0  0  0
 16 34  1  0  0  0
 17 24  1  0  0  0
 18 35  1  0  0  0
 18 36  1  0  0  0
 18 37  1  0  0  0
 19 38  1  0  0  0
 22 25  1  0  0  0
 22 26  1  0  0  0
 22 39  1  0  0  0
 23 40  1  0  0  0
 24 41  1  0  0  0
 24 42  1  0  0  0
 24 43  1  0  0  0
 25 27  1  0  0  0
 25 44  1  0  0  0
 25 45  1  0  0  0
 26 46  1  0  0  0
 27 47  1  0  0  0
M  END
> <i_ionizer_Ion_state_n>
0

> <i_ionizer_Tot_Q>
0

> <s_ionizer_Ion_centers>


> <s_ionizer_Ion_types>


> <s_ionizer_Ion_ctrs_in>


> <r_ionizer_Ionization_penalty>
0

> <r_ionizer_Ionization_penalty_charging>
0

> <r_ionizer_Ionization_penalty_neutral>
0

> <s_st_Chirality_1>
9_R_16_15_4_31

> <s_st_Chirality_2>
15_R_23_22_9_33

> <s_st_Chirality_3>
22_S_26_15_25_39

> <i_mmod_Serial_Number-OPLS-2005>
167

> <i_i_glide_lignum>
165

> <r_i_docking_score>
-4.70771

> <r_i_glide_gscore>
-4.70771

> <r_i_glide_lipo>
-1.56327

> <r_i_glide_hbond>
-0.609441

> <r_i_glide_metal>
0

> <r_i_glide_eburp>
-0.936575

> <r_i_glide_evdw>
-9.78519

> <r_i_glide_ecoul>
-6.03179

> <r_i_glide_erotb>
0.780844

> <r_i_glide_esite>
-0.993273

> <r_i_glide_emodel>
-15.6357

> <r_i_glide_energy>
-15.817

> <r_i_glide_einternal>
25.7932

> <i_i_glide_confnum>
12

> <i_i_glide_posenum>
522

$$$$
C01026
                    3D
 Structure written by MMmdl.
 16 15  0  0  1  0            999 V2000
    0.6378    2.1894    3.4838 C   0  0  0  0  0  0
    2.0393    1.8135    3.9780 C   0  0  0  0  0  0
    0.1206    3.2300    3.9491 O   0  0  0  0  0  0
    3.6866    0.8160    2.4406 C   0  0  0  0  0  0
    2.7528   -0.5397    4.2599 C   0  0  0  0  0  0
    2.6969    2.6489    3.7329 H   0  0  0  0  0  0
    2.0648    1.6996    5.0635 H   0  0  0  0  0  0
    3.9735   -0.0976    1.9187 H   0  0  0  0  0  0
    3.4574    1.5685    1.6853 H   0  0  0  0  0  0
    4.5423    1.1623    3.0218 H   0  0  0  0  0  0
    3.0272   -1.4480    3.7226 H   0  0  0  0  0  0
    3.5576   -0.2985    4.9555 H   0  0  0  0  0  0
    1.8564   -0.7607    4.8402 H   0  0  0  0  0  0
    0.1067    1.4265    2.6486 O   0  5  0  0  0  0
    2.5171    0.5754    3.3133 N   0  3  0  0  0  0
    1.7545    0.2935    2.7114 H   0  0  0  0  0  0
  1  2  1  0  0  0
  1  3  2  0  0  0
  1 14  1  0  0  0
  2  6  1  0  0  0
  2  7  1  0  0  0
  2 15  1  0  0  0
  4  8  1  0  0  0
  4  9  1  0  0  0
  4 10  1  0  0  0
  4 15  1  0  0  0
  5 11  1  0  0  0
  5 12  1  0  0  0
  5 13  1  0  0  0
  5 15  1  0  0  0
 15 16  1  0  0  0
M  CHG  2  14  -1  15   1
M  END
> <i_ionizer_Ion_state_n>
3

> <i_ionizer_Tot_Q>
0

> <s_ionizer_Ion_centers>
14_15

> <s_ionizer_Ion_types>
OM_N5

> <s_ionizer_Ion_ctrs_in>
3_5

> <r_ionizer_Ionization_penalty>
0.00118438

> <r_ionizer_Ionization_penalty_charging>
0.00118438

> <r_ionizer_Ionization_penalty_neutral>
0

> <i_mmod_Serial_Number-OPLS-2005>
374

> <i_i_glide_lignum>
370

> <r_i_docking_score>
-4.69852

> <r_i_glide_gscore>
-4.69852

> <r_i_glide_lipo>
-0.228524

> <r_i_glide_hbond>
-0.7

> <r_i_glide_metal>
0

> <r_i_glide_eburp>
-2.5

> <r_i_glide_evdw>
-7.58108

> <r_i_glide_ecoul>
-4.08848

> <r_i_glide_erotb>
0

> <r_i_glide_esite>
-0.254664

> <r_i_glide_emodel>
-26.6828

> <r_i_glide_energy>
-11.6696

> <r_i_glide_einternal>
0.232807

> <i_i_glide_confnum>
1

> <i_i_glide_posenum>
253

$$$$
C06148
                    3D
 Structure written by MMmdl.
 45 45  0  0  1  0            999 V2000
   -2.1260   10.9066    5.9890 C   0  0  0  0  0  0
   -1.4932   11.8082    5.1955 C   0  0  0  0  0  0
   -3.0523    9.9849    5.5225 N   0  0  0  0  0  0
   -1.8870   10.8374    7.3682 N   0  0  0  0  0  0
   -0.5280   12.7414    5.7937 C   0  0  0  0  0  0
   -1.7003   11.9073    3.8321 N   0  0  0  0  0  0
   -3.2891    9.5706    4.1466 C   0  0  0  0  0  0
   -1.0373   11.6552    7.9011 C   0  0  0  0  0  0
   -0.3591   12.6027    7.1290 N   0  0  0  0  0  0
    0.0976   13.5952    5.1657 O   0  0  0  0  0  0
   -2.2760    8.5243    3.6646 C   0  0  0  0  0  0
   -0.7002   11.7027    9.2376 N   0  0  0  0  0  0
   -1.9607    8.4469    2.1585 C   0  0  1  0  0  0
   -1.7090    7.7775    4.4641 O   0  0  0  0  0  0
   -0.7947    7.4889    1.7934 C   0  0  1  0  0  0
   -3.1093    8.1003    1.4029 O   0  0  0  0  0  0
   -1.1725    5.9923    1.8121 C   0  0  0  0  0  0
   -0.3017    7.7941    0.4992 O   0  0  0  0  0  0
   -0.0982    5.0883    1.6125 O   0  0  0  0  0  0
    0.7342    4.2763    2.8664 P   0  0  0  0  0  0
    1.9818    3.3624    2.1441 O   0  0  0  0  0  0
    1.3285    5.2822    3.7747 O   0  0  0  0  0  0
    3.3116    2.4247    2.6650 P   0  0  0  0  0  0
    2.7007    0.8959    3.0872 O   0  0  0  0  0  0
    4.2178    2.2392    1.5076 O   0  0  0  0  0  0
    1.2515   -0.1403    3.1938 P   0  0  0  0  0  0
    0.9009   -0.0761    4.6973 O   0  0  0  0  0  0
   -3.6617    9.5463    6.1976 H   0  0  0  0  0  0
   -1.1731   12.5632    3.2732 H   0  0  0  0  0  0
   -2.2977   11.2673    3.3302 H   0  0  0  0  0  0
   -4.2953    9.1583    4.0621 H   0  0  0  0  0  0
   -3.2342   10.4460    3.4989 H   0  0  0  0  0  0
    0.2958   13.2231    7.5799 H   0  0  0  0  0  0
   -1.0995   11.0796    9.9248 H   0  0  0  0  0  0
   -0.0313   12.3475    9.6317 H   0  0  0  0  0  0
   -1.6901    9.4552    1.8468 H   0  0  0  0  0  0
    0.0330    7.6505    2.4841 H   0  0  0  0  0  0
   -3.6643    8.8617    1.3385 H   0  0  0  0  0  0
   -1.9091    5.7810    1.0438 H   0  0  0  0  0  0
   -1.6553    5.7320    2.7536 H   0  0  0  0  0  0
   -0.0741    8.7198    0.4641 H   0  0  0  0  0  0
   -0.2320    3.3048    3.4280 O   0  5  0  0  0  0
    3.8508    3.0618    3.8895 O   0  5  0  0  0  0
    0.2638    0.5611    2.2349 O   0  5  0  0  0  0
    1.8134   -1.4919    2.6959 O   0  5  0  0  0  0
  1  2  2  0  0  0
  1  3  1  0  0  0
  1  4  1  0  0  0
  2  5  1  0  0  0
  2  6  1  0  0  0
  3  7  1  0  0  0
  3 28  1  0  0  0
  4  8  2  0  0  0
  5  9  1  0  0  0
  5 10  2  0  0  0
  6 29  1  0  0  0
  6 30  1  0  0  0
  7 11  1  0  0  0
  7 31  1  0  0  0
  7 32  1  0  0  0
  8 12  1  0  0  0
  8  9  1  0  0  0
  9 33  1  0  0  0
 11 13  1  0  0  0
 11 14  2  0  0  0
 12 34  1  0  0  0
 12 35  1  0  0  0
 13 15  1  0  0  0
 13 16  1  0  0  0
 13 36  1  0  0  0
 15 17  1  0  0  0
 15 18  1  0  0  0
 15 37  1  0  0  0
 16 38  1  0  0  0
 17 19  1  0  0  0
 17 39  1  0  0  0
 17 40  1  0  0  0
 18 41  1  0  0  0
 19 20  1  0  0  0
 20 21  1  0  0  0
 20 22  2  0  0  0
 20 42  1  0  0  0
 21 23  1  0  0  0
 23 24  1  0  0  0
 23 25  2  0  0  0
 23 43  1  0  0  0
 24 26  1  0  0  0
 26 27  2  0  0  0
 26 44  1  0  0  0
 26 45  1  0  0  0
M  CHG  4  42  -1  43  -1  44  -1  45  -1
M  END
> <i_ionizer_Ion_state_n>
15

> <i_ionizer_Tot_Q>
-4

> <s_ionizer_Ion_centers>
42_43_44_45

> <s_ionizer_Ion_types>
OM_OM_OM_OM

> <s_ionizer_Ion_ctrs_in>
22_26_29_30

> <r_ionizer_Ionization_penalty>
2.98356e-05

> <r_ionizer_Ionization_penalty_charging>
2.98356e-05

> <r_ionizer_Ionization_penalty_neutral>
0

> <s_st_Chirality_1>
13_R_16_11_15_36

> <s_st_Chirality_2>
15_R_18_13_17_37

> <i_mmod_Serial_Number-OPLS-2005>
860

> <i_i_glide_lignum>
848

> <r_i_docking_score>
-4.69371

> <r_i_glide_gscore>
-4.69371

> <r_i_glide_lipo>
-0.394328

> <r_i_glide_hbond>
-2.45458

> <r_i_glide_metal>
0

> <r_i_glide_eburp>
0.45458

> <r_i_glide_evdw>
-31.4702

> <r_i_glide_ecoul>
-21.9849

> <r_i_glide_erotb>
0.993042

> <r_i_glide_esite>
1.42368

> <r_i_glide_emodel>
-138.992

> <r_i_glide_energy>
-53.4551

> <r_i_glide_einternal>
17.4788

> <i_i_glide_confnum>
157

> <i_i_glide_posenum>
974

$$$$
C03793
                    3D
 Structure written by MMmdl.
 34 33  0  0  1  0            999 V2000
    7.1679   -0.5682   -0.0148 N   0  3  0  0  0  0
    6.0042   -0.3989    0.9119 C   0  0  0  0  0  0
    7.7770    0.7687   -0.2424 C   0  0  0  0  0  0
    8.2003   -1.4594    0.5776 C   0  0  0  0  0  0
    6.7333   -1.1150   -1.3274 C   0  0  0  0  0  0
    4.8914    0.5631    0.4349 C   0  0  0  0  0  0
    4.0327    1.0682    1.6035 C   0  0  0  0  0  0
    3.4985   -0.0761    2.4857 C   0  0  0  0  0  0
    2.6973    0.3993    3.7208 C   0  0  1  0  0  0
    1.3038    0.9210    3.3406 C   0  0  0  0  0  0
    0.8991    1.9632    3.9035 O   0  0  0  0  0  0
    5.5586   -1.3774    1.1001 H   0  0  0  0  0  0
    6.3731   -0.0502    1.8784 H   0  0  0  0  0  0
    8.6347    0.7075   -0.9144 H   0  0  0  0  0  0
    7.0602    1.4600   -0.6886 H   0  0  0  0  0  0
    8.1248    1.2104    0.6928 H   0  0  0  0  0  0
    9.0955   -1.4887   -0.0456 H   0  0  0  0  0  0
    8.4992   -1.1136    1.5683 H   0  0  0  0  0  0
    7.8487   -2.4868    0.6718 H   0  0  0  0  0  0
    7.5604   -1.1274   -2.0390 H   0  0  0  0  0  0
    6.3739   -2.1408   -1.2452 H   0  0  0  0  0  0
    5.9340   -0.5123   -1.7614 H   0  0  0  0  0  0
    5.3221    1.4267   -0.0708 H   0  0  0  0  0  0
    4.2387    0.0693   -0.2844 H   0  0  0  0  0  0
    4.6190    1.7536    2.2169 H   0  0  0  0  0  0
    3.2002    1.6489    1.2046 H   0  0  0  0  0  0
    2.8882   -0.7465    1.8781 H   0  0  0  0  0  0
    4.3444   -0.6744    2.8269 H   0  0  0  0  0  0
    3.2587    1.1866    4.2272 H   0  0  0  0  0  0
    2.0234   -0.3535    5.4915 H   0  0  0  0  0  0
    1.9765   -1.4304    4.2467 H   0  0  0  0  0  0
    2.5208   -0.7005    4.6840 N   0  3  0  0  0  0
    3.4210   -1.0615    4.9640 H   0  0  0  0  0  0
    0.6710    0.2739    2.4785 O   0  5  0  0  0  0
  1  2  1  0  0  0
  1  3  1  0  0  0
  1  4  1  0  0  0
  1  5  1  0  0  0
  2  6  1  0  0  0
  2 12  1  0  0  0
  2 13  1  0  0  0
  3 14  1  0  0  0
  3 15  1  0  0  0
  3 16  1  0  0  0
  4 17  1  0  0  0
  4 18  1  0  0  0
  4 19  1  0  0  0
  5 20  1  0  0  0
  5 21  1  0  0  0
  5 22  1  0  0  0
  6  7  1  0  0  0
  6 23  1  0  0  0
  6 24  1  0  0  0
  7  8  1  0  0  0
  7 25  1  0  0  0
  7 26  1  0  0  0
  8  9  1  0  0  0
  8 27  1  0  0  0
  8 28  1  0  0  0
  9 10  1  0  0  0
  9 29  1  0  0  0
  9 32  1  0  0  0
 10 11  2  0  0  0
 10 34  1  0  0  0
 30 32  1  0  0  0
 31 32  1  0  0  0
 32 33  1  0  0  0
M  CHG  3   1   1  32   1  34  -1
M  END
> <i_ionizer_Ion_state_n>
3

> <i_ionizer_Tot_Q>
1

> <s_ionizer_Ion_centers>
32_34

> <s_ionizer_Ion_types>
N5_OM

> <s_ionizer_Ion_ctrs_in>
11_13

> <r_ionizer_Ionization_penalty>
0.000779521

> <r_ionizer_Ionization_penalty_charging>
0.000779521

> <r_ionizer_Ionization_penalty_neutral>
0

> <s_st_Chirality_1>
9_S_32_10_8_29

> <i_mmod_Serial_Number-OPLS-2005>
568

> <i_i_glide_lignum>
562

> <r_i_docking_score>
-4.68573

> <r_i_glide_gscore>
-4.68573

> <r_i_glide_lipo>
-0.709699

> <r_i_glide_hbond>
-0.72648

> <r_i_glide_metal>
0

> <r_i_glide_eburp>
-2.35394

> <r_i_glide_evdw>
-14.3459

> <r_i_glide_ecoul>
-4.49401

> <r_i_glide_erotb>
2.04548

> <r_i_glide_esite>
-1.34402

> <r_i_glide_emodel>
-40.7215

> <r_i_glide_energy>
-18.8399

> <r_i_glide_einternal>
3.16741

> <i_i_glide_confnum>
48

> <i_i_glide_posenum>
138

$$$$
C00245
                    3D
 Structure written by MMmdl.
 14 13  0  0  1  0            999 V2000
    3.0793   -0.3931    3.2200 C   0  0  0  0  0  0
    1.2745   -0.0631    3.3465 S   0  0  0  0  0  0
    3.8770    0.5631    4.1164 C   0  0  0  0  0  0
    0.8959   -0.7069    4.6133 O   0  0  0  0  0  0
    0.7244   -0.6986    2.1403 O   0  0  0  0  0  0
    3.2406   -1.4330    3.5039 H   0  0  0  0  0  0
    3.3577   -0.2823    2.1721 H   0  0  0  0  0  0
    3.8978    1.5628    3.6813 H   0  0  0  0  0  0
    3.4040    0.6494    5.0952 H   0  0  0  0  0  0
    5.7569    0.7505    4.8940 H   0  0  0  0  0  0
    5.2594   -0.8127    4.7340 H   0  0  0  0  0  0
    1.1946    1.4052    3.3643 O   0  5  0  0  0  0
    5.2623    0.0996    4.3008 N   0  3  0  0  0  0
    5.7239    0.0466    3.4040 H   0  0  0  0  0  0
  1  2  1  0  0  0
  1  3  1  0  0  0
  1  6  1  0  0  0
  1  7  1  0  0  0
  2  4  2  0  0  0
  2  5  2  0  0  0
  2 12  1  0  0  0
  3  8  1  0  0  0
  3  9  1  0  0  0
  3 13  1  0  0  0
 10 13  1  0  0  0
 11 13  1  0  0  0
 13 14  1  0  0  0
M  CHG  2  12  -1  13   1
M  END
> <i_ionizer_Ion_state_n>
3

> <i_ionizer_Tot_Q>
0

> <s_ionizer_Ion_centers>
12_13

> <s_ionizer_Ion_types>
OM_N5

> <s_ionizer_Ion_ctrs_in>
4_7

> <r_ionizer_Ionization_penalty>
0.000187337

> <r_ionizer_Ionization_penalty_charging>
0.000187337

> <r_ionizer_Ionization_penalty_neutral>
0

> <i_mmod_Serial_Number-OPLS-2005>
160

> <i_i_glide_lignum>
158

> <r_i_docking_score>
-4.67741

> <r_i_glide_gscore>
-4.67741

> <r_i_glide_lipo>
-0.189876

> <r_i_glide_hbond>
-0.5

> <r_i_glide_metal>
0

> <r_i_glide_eburp>
-2.5

> <r_i_glide_evdw>
-9.46972

> <r_i_glide_ecoul>
-5.85336

> <r_i_glide_erotb>
0

> <r_i_glide_esite>
-0.144622

> <r_i_glide_emodel>
-32.7152

> <r_i_glide_energy>
-15.3231

> <r_i_glide_einternal>
0.860339

> <i_i_glide_confnum>
1

> <i_i_glide_posenum>
130

$$$$
C04079
                    3D
 Structure written by MMmdl.
 42 41  0  0  1  0            999 V2000
    2.6684    0.9200    3.1766 C   0  0  2  0  0  0
    3.7094    1.5664    3.9756 N   0  0  0  0  0  0
    1.3210    0.8981    3.9132 C   0  0  0  0  0  0
    3.1328   -0.4501    2.6321 C   0  0  0  0  0  0
    4.0786    2.8534    3.8995 C   0  0  0  0  0  0
    0.9072   -0.2169    4.2998 O   0  0  0  0  0  0
    4.0864   -0.2992    1.0902 S   0  0  0  0  0  0
    3.3833    3.7001    2.8278 C   0  0  0  0  0  0
    4.9090    3.3638    4.6513 O   0  0  0  0  0  0
    2.0456    4.3143    3.2886 C   0  0  0  0  0  0
    1.4692    5.2226    2.2998 N   0  0  0  0  0  0
    0.2068    5.6834    2.2904 C   0  0  0  0  0  0
   -0.1707    6.7026    1.1929 C   0  0  1  0  0  0
   -0.6448    5.3116    3.0978 O   0  0  0  0  0  0
   -1.5922    7.3518    1.3401 C   0  0  0  0  0  0
    0.8377    7.6993    1.0918 O   0  0  0  0  0  0
   -1.6491    8.1231    2.6891 C   0  0  0  0  0  0
   -1.8491    8.3599    0.1919 C   0  0  0  0  0  0
   -2.6992    6.2701    1.3073 C   0  0  0  0  0  0
   -2.9629    8.4995    3.0553 O   0  0  0  0  0  0
    2.4954    1.5595    2.3087 H   0  0  0  0  0  0
    4.1493    0.9758    4.6674 H   0  0  0  0  0  0
    3.7531   -0.9565    3.3723 H   0  0  0  0  0  0
    2.2755   -1.0985    2.4495 H   0  0  0  0  0  0
    4.2332   -1.6114    0.8879 H   0  0  0  0  0  0
    4.0547    4.4993    2.5106 H   0  0  0  0  0  0
    3.2214    3.0772    1.9474 H   0  0  0  0  0  0
    1.3445    3.5236    3.5616 H   0  0  0  0  0  0
    2.2132    4.8891    4.1996 H   0  0  0  0  0  0
    2.0625    5.5090    1.5339 H   0  0  0  0  0  0
   -0.1423    6.1530    0.2507 H   0  0  0  0  0  0
    0.4240    8.5479    1.0656 H   0  0  0  0  0  0
   -1.2483    7.5196    3.5037 H   0  0  0  0  0  0
   -1.0387    9.0256    2.6371 H   0  0  0  0  0  0
   -2.7967    8.8844    0.3158 H   0  0  0  0  0  0
   -1.0630    9.1141    0.1427 H   0  0  0  0  0  0
   -1.9005    7.8713   -0.7809 H   0  0  0  0  0  0
   -3.6915    6.7101    1.4095 H   0  0  0  0  0  0
   -2.6976    5.7150    0.3692 H   0  0  0  0  0  0
   -2.5808    5.5491    2.1164 H   0  0  0  0  0  0
   -3.2651    9.1653    2.4564 H   0  0  0  0  0  0
    0.7288    1.9881    4.0844 O   0  5  0  0  0  0
  1  2  1  0  0  0
  1  3  1  0  0  0
  1  4  1  0  0  0
  1 21  1  0  0  0
  2  5  1  0  0  0
  2 22  1  0  0  0
  3  6  2  0  0  0
  3 42  1  0  0  0
  4  7  1  0  0  0
  4 23  1  0  0  0
  4 24  1  0  0  0
  5  8  1  0  0  0
  5  9  2  0  0  0
  7 25  1  0  0  0
  8 10  1  0  0  0
  8 26  1  0  0  0
  8 27  1  0  0  0
 10 11  1  0  0  0
 10 28  1  0  0  0
 10 29  1  0  0  0
 11 12  1  0  0  0
 11 30  1  0  0  0
 12 13  1  0  0  0
 12 14  2  0  0  0
 13 15  1  0  0  0
 13 16  1  0  0  0
 13 31  1  0  0  0
 15 17  1  0  0  0
 15 18  1  0  0  0
 15 19  1  0  0  0
 16 32  1  0  0  0
 17 20  1  0  0  0
 17 33  1  0  0  0
 17 34  1  0  0  0
 18 35  1  0  0  0
 18 36  1  0  0  0
 18 37  1  0  0  0
 19 38  1  0  0  0
 19 39  1  0  0  0
 19 40  1  0  0  0
 20 41  1  0  0  0
M  CHG  1  42  -1
M  END
> <i_ionizer_Ion_state_n>
1

> <i_ionizer_Tot_Q>
-1

> <s_ionizer_Ion_centers>
42

> <s_ionizer_Ion_types>
OM

> <s_ionizer_Ion_ctrs_in>
6

> <r_ionizer_Ionization_penalty>
0.00246284

> <r_ionizer_Ionization_penalty_charging>
0.00059219

> <r_ionizer_Ionization_penalty_neutral>
0.00187065

> <s_st_Chirality_1>
1_R_2_4_3_21

> <s_st_Chirality_2>
13_R_16_12_15_31

> <i_mmod_Serial_Number-OPLS-2005>
582

> <i_i_glide_lignum>
576

> <r_i_docking_score>
-4.6725

> <r_i_glide_gscore>
-4.6725

> <r_i_glide_lipo>
-0.717267

> <r_i_glide_hbond>
-0.818298

> <r_i_glide_metal>
0

> <r_i_glide_eburp>
-1.35322

> <r_i_glide_evdw>
-33.7683

> <r_i_glide_ecoul>
-9.47042

> <r_i_glide_erotb>
2.06765

> <r_i_glide_esite>
-0.202859

> <r_i_glide_emodel>
-71.6643

> <r_i_glide_energy>
-43.2388

> <r_i_glide_einternal>
18.4861

> <i_i_glide_confnum>
27

> <i_i_glide_posenum>
862

$$$$
C00256
                    3D
 Structure written by MMmdl.
 11 10  0  0  1  0            999 V2000
    1.2763    1.5790    3.1038 C   0  0  1  0  0  0
    0.7457    3.0150    3.2659 C   0  0  0  0  0  0
    1.4630    0.8545    4.4500 C   0  0  0  0  0  0
    0.3914    0.8232    2.2987 O   0  0  0  0  0  0
    0.1003    3.3012    4.2997 O   0  0  0  0  0  0
    2.2367    1.6345    2.5905 H   0  0  0  0  0  0
    1.8691   -0.1463    4.3017 H   0  0  0  0  0  0
    2.1567    1.3929    5.0969 H   0  0  0  0  0  0
    0.5178    0.7515    4.9848 H   0  0  0  0  0  0
    0.3720    1.2052    1.4356 H   0  0  0  0  0  0
    1.0132    3.8206    2.3467 O   0  5  0  0  0  0
  1  2  1  0  0  0
  1  3  1  0  0  0
  1  4  1  0  0  0
  1  6  1  0  0  0
  2  5  2  0  0  0
  2 11  1  0  0  0
  3  7  1  0  0  0
  3  8  1  0  0  0
  3  9  1  0  0  0
  4 10  1  0  0  0
M  CHG  1  11  -1
M  END
> <i_ionizer_Ion_state_n>
1

> <i_ionizer_Tot_Q>
-1

> <s_ionizer_Ion_centers>
11

> <s_ionizer_Ion_types>
OM

> <s_ionizer_Ion_ctrs_in>
5

> <r_ionizer_Ionization_penalty>
0.00059219

> <r_ionizer_Ionization_penalty_charging>
0.00059219

> <r_ionizer_Ionization_penalty_neutral>
0

> <s_st_Chirality_1>
1_R_4_2_3_6

> <i_mmod_Serial_Number-OPLS-2005>
168

> <i_i_glide_lignum>
166

> <r_i_docking_score>
-4.65708

> <r_i_glide_gscore>
-4.65708

> <r_i_glide_lipo>
-0.171749

> <r_i_glide_hbond>
-0.7

> <r_i_glide_metal>
0

> <r_i_glide_eburp>
-2.5

> <r_i_glide_evdw>
-8.03816

> <r_i_glide_ecoul>
-4.64571

> <r_i_glide_erotb>
0

> <r_i_glide_esite>
-0.177704

> <r_i_glide_emodel>
-27.94

> <r_i_glide_energy>
-12.6839

> <r_i_glide_einternal>
0.459198

> <i_i_glide_confnum>
1

> <i_i_glide_posenum>
478

$$$$
C06055
                    3D
 Structure written by MMmdl.
 21 20  0  0  1  0            999 V2000
   -0.1117    4.7806    2.6063 P   0  0  0  0  0  0
    0.9600    3.3895    2.2325 O   0  0  0  0  0  0
    0.4905    5.2838    3.9359 O   0  0  0  0  0  0
    1.0491    2.3596    3.2076 C   0  0  0  0  0  0
    2.3961    1.6033    3.1312 C   0  0  2  0  0  0
    2.4819    0.3595    4.0541 C   0  0  1  0  0  0
    3.4173    2.4874    3.5503 O   0  0  0  0  0  0
    1.4042   -0.6912    3.7425 C   0  0  0  0  0  0
    1.3101   -1.1010    2.5634 O   0  0  0  0  0  0
    0.8529    2.7312    4.2137 H   0  0  0  0  0  0
    0.2220    1.6883    2.9811 H   0  0  0  0  0  0
    2.5899    1.3131    2.0972 H   0  0  0  0  0  0
    2.3921    0.6778    5.0946 H   0  0  0  0  0  0
    4.2394    2.0021    3.5112 H   0  0  0  0  0  0
    3.8478   -1.0767    4.5469 H   0  0  0  0  0  0
    3.8635   -0.6485    2.9529 H   0  0  0  0  0  0
    0.0961    5.6999    1.3826 O   0  5  0  0  0  0
   -1.4966    4.1028    2.7109 O   0  5  0  0  0  0
    3.7869   -0.3048    3.8994 N   0  3  0  0  0  0
    4.5203    0.3650    4.0819 H   0  0  0  0  0  0
    0.7139   -1.0983    4.7024 O   0  5  0  0  0  0
  1  2  1  0  0  0
  1  3  2  0  0  0
  1 17  1  0  0  0
  1 18  1  0  0  0
  2  4  1  0  0  0
  4  5  1  0  0  0
  4 10  1  0  0  0
  4 11  1  0  0  0
  5  6  1  0  0  0
  5  7  1  0  0  0
  5 12  1  0  0  0
  6  8  1  0  0  0
  6 13  1  0  0  0
  6 19  1  0  0  0
  7 14  1  0  0  0
  8  9  2  0  0  0
  8 21  1  0  0  0
 15 19  1  0  0  0
 16 19  1  0  0  0
 19 20  1  0  0  0
M  CHG  4  17  -1  18  -1  19   1  21  -1
M  END
> <i_ionizer_Ion_state_n>
15

> <i_ionizer_Tot_Q>
-2

> <s_ionizer_Ion_centers>
17_18_19_21

> <s_ionizer_Ion_types>
OM_OM_N5_OM

> <s_ionizer_Ion_ctrs_in>
3_4_11_12

> <r_ionizer_Ionization_penalty>
0.000794438

> <r_ionizer_Ionization_penalty_charging>
0.000794438

> <r_ionizer_Ionization_penalty_neutral>
0

> <s_st_Chirality_1>
5_S_7_4_6_12

> <s_st_Chirality_2>
6_S_19_8_5_13

> <i_mmod_Serial_Number-OPLS-2005>
853

> <i_i_glide_lignum>
841

> <r_i_docking_score>
-4.65224

> <r_i_glide_gscore>
-4.65224

> <r_i_glide_lipo>
-0.240123

> <r_i_glide_hbond>
-1.56992

> <r_i_glide_metal>
0

> <r_i_glide_eburp>
-2.1736

> <r_i_glide_evdw>
-14.5283

> <r_i_glide_ecoul>
-7.76663

> <r_i_glide_erotb>
1.25911

> <r_i_glide_esite>
0.0112199

> <r_i_glide_emodel>
-60.9574

> <r_i_glide_energy>
-22.295

> <r_i_glide_einternal>
9.34928

> <i_i_glide_confnum>
7

> <i_i_glide_posenum>
149

$$$$
C01143
                    3D
 Structure written by MMmdl.
 28 27  0  0  1  0            999 V2000
    2.6054    4.7627    1.3203 P   0  0  0  0  0  0
    3.4097    4.6562    2.8212 O   0  0  0  0  0  0
    0.9549    4.7442    1.7379 O   0  0  0  0  0  0
    2.9250    6.0690    0.6999 O   0  0  0  0  0  0
    3.2875    3.5238    3.6632 C   0  0  0  0  0  0
   -0.2447    4.8156    3.0624 P   0  0  0  0  0  0
    3.8641    2.2685    2.9778 C   0  0  0  0  0  0
   -1.5880    4.7642    2.2996 O   0  0  0  0  0  0
    3.7870    0.9547    3.7960 C   0  0  1  0  0  0
    2.3471    0.8023    4.3761 C   0  0  0  0  0  0
    4.1775   -0.2709    2.9413 C   0  0  0  0  0  0
    4.7185    1.0553    4.8585 O   0  0  0  0  0  0
    1.2072    0.5328    3.3724 C   0  0  0  0  0  0
    0.5005    1.4866    2.9744 O   0  0  0  0  0  0
    3.8030    3.7256    4.6017 H   0  0  0  0  0  0
    2.2323    3.3887    3.8997 H   0  0  0  0  0  0
    3.3419    2.1300    2.0303 H   0  0  0  0  0  0
    4.9047    2.4545    2.7141 H   0  0  0  0  0  0
    2.3310   -0.0223    5.0898 H   0  0  0  0  0  0
    2.0924    1.6960    4.9474 H   0  0  0  0  0  0
    4.0994   -1.2029    3.5005 H   0  0  0  0  0  0
    3.5316   -0.3590    2.0672 H   0  0  0  0  0  0
    5.2057   -0.2080    2.5851 H   0  0  0  0  0  0
    4.7711    0.1983    5.2633 H   0  0  0  0  0  0
    2.8988    3.5195    0.5699 O   0  5  0  0  0  0
    0.1022    3.5639    3.8998 O   0  5  0  0  0  0
    0.0913    6.1727    3.7227 O   0  5  0  0  0  0
    1.0738   -0.6532    2.9996 O   0  5  0  0  0  0
  1  2  1  0  0  0
  1  3  1  0  0  0
  1  4  2  0  0  0
  1 25  1  0  0  0
  2  5  1  0  0  0
  3  6  1  0  0  0
  5  7  1  0  0  0
  5 15  1  0  0  0
  5 16  1  0  0  0
  6  8  2  0  0  0
  6 26  1  0  0  0
  6 27  1  0  0  0
  7  9  1  0  0  0
  7 17  1  0  0  0
  7 18  1  0  0  0
  9 10  1  0  0  0
  9 11  1  0  0  0
  9 12  1  0  0  0
 10 13  1  0  0  0
 10 19  1  0  0  0
 10 20  1  0  0  0
 11 21  1  0  0  0
 11 22  1  0  0  0
 11 23  1  0  0  0
 12 24  1  0  0  0
 13 14  2  0  0  0
 13 28  1  0  0  0
M  CHG  4  25  -1  26  -1  27  -1  28  -1
M  END
> <i_ionizer_Ion_state_n>
15

> <i_ionizer_Tot_Q>
-4

> <s_ionizer_Ion_centers>
25_26_27_28

> <s_ionizer_Ion_types>
OM_OM_OM_OM

> <s_ionizer_Ion_ctrs_in>
4_9_10_17

> <r_ionizer_Ionization_penalty>
0.000614566

> <r_ionizer_Ionization_penalty_charging>
0.000614566

> <r_ionizer_Ionization_penalty_neutral>
0

> <s_st_Chirality_1>
9_R_12_10_7_11

> <i_mmod_Serial_Number-OPLS-2005>
400

> <i_i_glide_lignum>
396

> <r_i_docking_score>
-4.64595

> <r_i_glide_gscore>
-4.64595

> <r_i_glide_lipo>
-0.418182

> <r_i_glide_hbond>
-1.32044

> <r_i_glide_metal>
0

> <r_i_glide_eburp>
-1.88418

> <r_i_glide_evdw>
-19.6126

> <r_i_glide_ecoul>
-3.02875

> <r_i_glide_erotb>
1.3672

> <r_i_glide_esite>
-0.518472

> <r_i_glide_emodel>
-71.9588

> <r_i_glide_energy>
-22.6413

> <r_i_glide_einternal>
4.84343

> <i_i_glide_confnum>
3

> <i_i_glide_posenum>
395

$$$$
C00232
                    3D
 Structure written by MMmdl.
 12 11  0  0  1  0            999 V2000
    0.3275    2.0771    2.6771 C   0  0  0  0  0  0
   -0.2999    3.4009    3.1240 C   0  0  0  0  0  0
    1.0909    1.3684    3.8106 C   0  0  0  0  0  0
   -1.4386    3.6998    2.6998 O   0  0  0  0  0  0
    1.3562   -0.0950    3.4779 C   0  0  0  0  0  0
    0.9048   -0.5963    2.4503 O   0  0  0  0  0  0
    0.9985    2.2807    1.8422 H   0  0  0  0  0  0
   -0.4662    1.4325    2.2984 H   0  0  0  0  0  0
    2.0456    1.8632    3.9918 H   0  0  0  0  0  0
    0.5215    1.4170    4.7393 H   0  0  0  0  0  0
    1.9589   -0.6477    4.1990 H   0  0  0  0  0  0
    0.3878    4.1015    3.8975 O   0  5  0  0  0  0
  1  2  1  0  0  0
  1  3  1  0  0  0
  1  7  1  0  0  0
  1  8  1  0  0  0
  2  4  2  0  0  0
  2 12  1  0  0  0
  3  5  1  0  0  0
  3  9  1  0  0  0
  3 10  1  0  0  0
  5  6  2  0  0  0
  5 11  1  0  0  0
M  CHG  1  12  -1
M  END
> <i_ionizer_Ion_state_n>
1

> <i_ionizer_Tot_Q>
-1

> <s_ionizer_Ion_centers>
12

> <s_ionizer_Ion_types>
OM

> <s_ionizer_Ion_ctrs_in>
4

> <r_ionizer_Ionization_penalty>
0.00059219

> <r_ionizer_Ionization_penalty_charging>
0.00059219

> <r_ionizer_Ionization_penalty_neutral>
0

> <i_mmod_Serial_Number-OPLS-2005>
152

> <i_i_glide_lignum>
150

> <r_i_docking_score>
-4.63659

> <r_i_glide_gscore>
-4.63659

> <r_i_glide_lipo>
-0.167577

> <r_i_glide_hbond>
-1.4

> <r_i_glide_metal>
0

> <r_i_glide_eburp>
-2.9

> <r_i_glide_evdw>
-10.6464

> <r_i_glide_ecoul>
-4.87583

> <r_i_glide_erotb>
1.37755

> <r_i_glide_esite>
-0.207268

> <r_i_glide_emodel>
-36.3704

> <r_i_glide_energy>
-15.5222

> <r_i_glide_einternal>
2.36822

> <i_i_glide_confnum>
1

> <i_i_glide_posenum>
63

$$$$
C00208
                    3D
 Structure written by MMmdl.
 45 46  0  0  1  0            999 V2000
    2.1001    4.6265    1.7756 C   0  0  1  0  0  0
    0.6268    4.4675    2.2185 C   0  0  2  0  0  0
    2.5725    3.3032    1.4682 O   0  0  0  0  0  0
    2.1996    5.4554    0.4736 C   0  0  1  0  0  0
   -0.0183    5.7363    2.2082 O   0  0  0  0  0  0
    0.5044    3.9358    3.6574 C   0  0  0  0  0  0
    3.5277    2.7586    2.3572 C   0  0  1  0  0  0
    1.3266    6.7252    0.5249 C   0  0  2  0  0  0
    3.5321    5.9003    0.3077 O   0  0  0  0  0  0
   -0.0972    6.3357    0.9573 C   0  0  2  0  0  0
    0.9006    4.9273    4.5817 O   0  0  0  0  0  0
    2.9649    2.2409    3.5401 O   0  0  0  0  0  0
    4.3802    1.6849    1.6605 C   0  0  1  0  0  0
    1.3131    7.2989   -0.7688 O   0  0  0  0  0  0
   -0.9030    7.4894    1.0214 O   0  0  0  0  0  0
    2.0773    1.1257    3.3528 C   0  0  1  0  0  0
    3.5616    0.4063    1.4190 C   0  0  2  0  0  0
    4.8908    2.2132    0.4400 O   0  0  0  0  0  0
    2.8832   -0.0417    2.7297 C   0  0  2  0  0  0
    1.4657    0.8297    4.7363 C   0  0  0  0  0  0
    4.4195   -0.6246    0.9343 O   0  0  0  0  0  0
    2.0429   -1.1654    2.4804 O   0  0  0  0  0  0
    0.7348   -0.3911    4.7657 O   0  0  0  0  0  0
    2.6736    5.0793    2.5875 H   0  0  0  0  0  0
    0.1176    3.7932    1.5264 H   0  0  0  0  0  0
    1.9079    4.8382   -0.3782 H   0  0  0  0  0  0
   -0.5249    3.6712    3.8863 H   0  0  0  0  0  0
    1.0964    3.0304    3.7958 H   0  0  0  0  0  0
    4.1762    3.5799    2.6857 H   0  0  0  0  0  0
    1.7213    7.4441    1.2456 H   0  0  0  0  0  0
    3.9542    5.3192   -0.3077 H   0  0  0  0  0  0
   -0.5690    5.6539    0.2468 H   0  0  0  0  0  0
    1.7390    5.2715    4.3137 H   0  0  0  0  0  0
    5.2211    1.4517    2.3154 H   0  0  0  0  0  0
    0.8310    8.1112   -0.7202 H   0  0  0  0  0  0
   -0.3598    8.2047    1.3156 H   0  0  0  0  0  0
    1.2812    1.4176    2.6679 H   0  0  0  0  0  0
    2.7970    0.6081    0.6667 H   0  0  0  0  0  0
    4.1394    2.4711   -0.1120 H   0  0  0  0  0  0
    3.6522   -0.3445    3.4422 H   0  0  0  0  0  0
    2.2440    0.8020    5.4995 H   0  0  0  0  0  0
    0.7856    1.6362    5.0122 H   0  0  0  0  0  0
    4.0811   -0.9282    0.0809 H   0  0  0  0  0  0
    1.9861   -1.6933    3.2881 H   0  0  0  0  0  0
    1.3577   -1.1223    4.8766 H   0  0  0  0  0  0
  1  2  1  0  0  0
  1  3  1  0  0  0
  1  4  1  0  0  0
  1 24  1  0  0  0
  2  5  1  0  0  0
  2  6  1  0  0  0
  2 25  1  0  0  0
  3  7  1  0  0  0
  4  8  1  0  0  0
  4  9  1  0  0  0
  4 26  1  0  0  0
  5 10  1  0  0  0
  6 11  1  0  0  0
  6 27  1  0  0  0
  6 28  1  0  0  0
  7 12  1  0  0  0
  7 13  1  0  0  0
  7 29  1  0  0  0
  8 14  1  0  0  0
  8 10  1  0  0  0
  8 30  1  0  0  0
  9 31  1  0  0  0
 10 15  1  0  0  0
 10 32  1  0  0  0
 11 33  1  0  0  0
 12 16  1  0  0  0
 13 17  1  0  0  0
 13 18  1  0  0  0
 13 34  1  0  0  0
 14 35  1  0  0  0
 15 36  1  0  0  0
 16 19  1  0  0  0
 16 20  1  0  0  0
 16 37  1  0  0  0
 17 21  1  0  0  0
 17 19  1  0  0  0
 17 38  1  0  0  0
 18 39  1  0  0  0
 19 22  1  0  0  0
 19 40  1  0  0  0
 20 23  1  0  0  0
 20 41  1  0  0  0
 20 42  1  0  0  0
 21 43  1  0  0  0
 22 44  1  0  0  0
 23 45  1  0  0  0
M  END
> <i_ionizer_Ion_state_n>
0

> <i_ionizer_Tot_Q>
0

> <s_ionizer_Ion_centers>


> <s_ionizer_Ion_types>


> <s_ionizer_Ion_ctrs_in>


> <r_ionizer_Ionization_penalty>
0

> <r_ionizer_Ionization_penalty_charging>
0

> <r_ionizer_Ionization_penalty_neutral>
0

> <s_st_Chirality_1>
1_R_3_4_2_24

> <s_st_Chirality_2>
2_R_5_1_6_25

> <s_st_Chirality_3>
4_S_9_8_1_26

> <s_st_Chirality_4>
7_R_3_12_13_29

> <s_st_Chirality_5>
8_R_14_10_4_30

> <s_st_Chirality_6>
13_R_18_7_17_34

> <s_st_Chirality_7>
16_R_12_19_20_37

> <s_st_Chirality_8>
17_S_21_13_19_38

> <s_st_Chirality_9>
19_R_22_17_16_40

> <s_st_Chirality_10>
10_R_5_15_8_32

> <i_mmod_Serial_Number-OPLS-2005>
140

> <i_i_glide_lignum>
138

> <r_i_docking_score>
-4.63123

> <r_i_glide_gscore>
-4.63123

> <r_i_glide_lipo>
-0.897077

> <r_i_glide_hbond>
-0.753624

> <r_i_glide_metal>
0

> <r_i_glide_eburp>
-1.19468

> <r_i_glide_evdw>
-11.2168

> <r_i_glide_ecoul>
-10.2129

> <r_i_glide_erotb>
0.739756

> <r_i_glide_esite>
-0.606966

> <r_i_glide_emodel>
-28.5813

> <r_i_glide_energy>
-21.4298

> <r_i_glide_einternal>
9.09425

> <i_i_glide_confnum>
4

> <i_i_glide_posenum>
126

$$$$
C00325
                    3D
 Structure written by MMmdl.
 61 64  0  0  1  0            999 V2000
   -2.6237   12.3380    4.9504 N   0  0  0  0  0  0
   -1.9351   13.4995    5.2267 C   0  0  0  0  0  0
   -2.4301   11.0234    5.6350 C   0  0  2  0  0  0
   -3.4990   12.6753    3.9444 C   0  0  0  0  0  0
   -2.4322   14.4632    4.3722 C   0  0  0  0  0  0
   -0.9544   13.6664    6.1669 N   0  0  0  0  0  0
   -1.8287   10.1536    4.7192 O   0  0  0  0  0  0
   -3.7991   10.4380    6.0020 C   0  0  1  0  0  0
   -3.4252   13.9203    3.5637 N   0  0  0  0  0  0
   -1.9029   15.7968    4.4255 C   0  0  0  0  0  0
   -0.4679   14.8931    6.2179 C   0  0  0  0  0  0
   -2.6895    9.0543    4.4267 C   0  0  1  0  0  0
   -4.0867    9.5503    4.8024 C   0  0  1  0  0  0
   -3.7354    9.7091    7.2133 O   0  0  0  0  0  0
   -0.9028   15.9301    5.3965 N   0  0  0  0  0  0
   -2.2188   16.7721    3.7477 O   0  0  0  0  0  0
    0.4974   15.1790    7.1002 N   0  0  0  0  0  0
   -2.5190    8.6295    2.9624 C   0  0  0  0  0  0
   -5.0029    8.5168    5.1093 O   0  0  0  0  0  0
   -1.4887    7.6693    2.8666 O   0  0  0  0  0  0
   -1.4925    6.4985    1.6365 P   0  0  0  0  0  0
   -0.0254    5.6790    1.8742 O   0  0  0  0  0  0
   -2.6016    5.5532    1.8986 O   0  0  0  0  0  0
    0.5520    4.5563    3.0118 P   0  0  0  0  0  0
    1.6471    3.5716    2.1445 O   0  0  0  0  0  0
    1.2890    5.2997    4.0591 O   0  0  0  0  0  0
    2.4016    2.5310    2.7455 C   0  0  2  0  0  0
    3.3807    1.9082    1.7145 C   0  0  2  0  0  0
    1.5180    1.5311    3.2486 O   0  0  0  0  0  0
    4.0545    0.6425    2.2850 C   0  0  1  0  0  0
    4.4283    2.8215    1.4575 O   0  0  0  0  0  0
    2.1392    0.4394    3.9148 C   0  0  2  0  0  0
    3.0318   -0.3190    2.9149 C   0  0  1  0  0  0
    4.8005   -0.0429    1.2932 O   0  0  0  0  0  0
    1.0580   -0.4298    4.5743 C   0  0  0  0  0  0
    2.2251   -0.9500    1.9350 O   0  0  0  0  0  0
   -1.7829   11.2427    6.4853 H   0  0  0  0  0  0
   -4.1926   11.9751    3.5015 H   0  0  0  0  0  0
   -4.5483   11.2228    6.1168 H   0  0  0  0  0  0
   -2.3910    8.2393    5.0884 H   0  0  0  0  0  0
   -4.4956   10.1621    3.9969 H   0  0  0  0  0  0
   -4.6171    9.4373    7.4242 H   0  0  0  0  0  0
   -0.4860   16.8439    5.4898 H   0  0  0  0  0  0
    0.8359   14.4516    7.7136 H   0  0  0  0  0  0
    0.8855   16.1087    7.1597 H   0  0  0  0  0  0
   -3.4497    8.2387    2.5496 H   0  0  0  0  0  0
   -2.2323    9.4898    2.3568 H   0  0  0  0  0  0
   -5.8162    8.9241    5.3866 H   0  0  0  0  0  0
    2.9551    2.9289    3.5977 H   0  0  0  0  0  0
    2.8528    1.6695    0.7903 H   0  0  0  0  0  0
    4.7517    0.9411    3.0700 H   0  0  0  0  0  0
    4.0518    3.5796    1.0295 H   0  0  0  0  0  0
    2.7682    0.8402    4.7117 H   0  0  0  0  0  0
    3.5651   -1.1094    3.4445 H   0  0  0  0  0  0
    4.2120   -0.3084    0.6043 H   0  0  0  0  0  0
    1.4991   -1.2867    5.0840 H   0  0  0  0  0  0
    0.5017    0.1453    5.3148 H   0  0  0  0  0  0
    0.3390   -0.8034    3.8451 H   0  0  0  0  0  0
    1.8518   -0.2837    1.3793 H   0  0  0  0  0  0
   -1.4296    7.2113    0.3419 O   0  5  0  0  0  0
   -0.5877    3.6995    3.4096 O   0  5  0  0  0  0
  1  2  1  0  0  0
  1  3  1  0  0  0
  1  4  1  0  0  0
  2  5  2  0  0  0
  2  6  1  0  0  0
  3  7  1  0  0  0
  3  8  1  0  0  0
  3 37  1  0  0  0
  4  9  2  0  0  0
  4 38  1  0  0  0
  5 10  1  0  0  0
  5  9  1  0  0  0
  6 11  2  0  0  0
  7 12  1  0  0  0
  8 13  1  0  0  0
  8 14  1  0  0  0
  8 39  1  0  0  0
 10 15  1  0  0  0
 10 16  2  0  0  0
 11 17  1  0  0  0
 11 15  1  0  0  0
 12 18  1  0  0  0
 12 13  1  0  0  0
 12 40  1  0  0  0
 13 19  1  0  0  0
 13 41  1  0  0  0
 14 42  1  0  0  0
 15 43  1  0  0  0
 17 44  1  0  0  0
 17 45  1  0  0  0
 18 20  1  0  0  0
 18 46  1  0  0  0
 18 47  1  0  0  0
 19 48  1  0  0  0
 20 21  1  0  0  0
 21 22  1  0  0  0
 21 23  2  0  0  0
 21 60  1  0  0  0
 22 24  1  0  0  0
 24 25  1  0  0  0
 24 26  2  0  0  0
 24 61  1  0  0  0
 25 27  1  0  0  0
 27 28  1  0  0  0
 27 29  1  0  0  0
 27 49  1  0  0  0
 28 30  1  0  0  0
 28 31  1  0  0  0
 28 50  1  0  0  0
 29 32  1  0  0  0
 30 33  1  0  0  0
 30 34  1  0  0  0
 30 51  1  0  0  0
 31 52  1  0  0  0
 32 35  1  0  0  0
 32 33  1  0  0  0
 32 53  1  0  0  0
 33 36  1  0  0  0
 33 54  1  0  0  0
 34 55  1  0  0  0
 35 56  1  0  0  0
 35 57  1  0  0  0
 35 58  1  0  0  0
 36 59  1  0  0  0
M  CHG  2  60  -1  61  -1
M  END
> <i_ionizer_Ion_state_n>
6

> <i_ionizer_Tot_Q>
-2

> <s_ionizer_Ion_centers>
60_61

> <s_ionizer_Ion_types>
OM_OM

> <s_ionizer_Ion_ctrs_in>
23_27

> <r_ionizer_Ionization_penalty>
3.36536e-05

> <r_ionizer_Ionization_penalty_charging>
1.49178e-05

> <r_ionizer_Ionization_penalty_neutral>
1.87357e-05

> <s_st_Chirality_1>
3_R_7_1_8_37

> <s_st_Chirality_2>
8_R_14_3_13_39

> <s_st_Chirality_3>
12_R_7_13_18_40

> <s_st_Chirality_4>
13_R_19_8_12_41

> <s_st_Chirality_5>
28_S_31_27_30_50

> <s_st_Chirality_6>
30_R_34_28_33_51

> <s_st_Chirality_7>
32_S_29_33_35_53

> <s_st_Chirality_8>
33_R_36_30_32_54

> <s_st_Chirality_9>
27_R_25_29_28_49

> <i_mmod_Serial_Number-OPLS-2005>
191

> <i_i_glide_lignum>
189

> <r_i_docking_score>
-4.62828

> <r_i_glide_gscore>
-4.62828

> <r_i_glide_lipo>
-0.731302

> <r_i_glide_hbond>
-1.45184

> <r_i_glide_metal>
0

> <r_i_glide_eburp>
-8.91214e-17

> <r_i_glide_evdw>
-36.2816

> <r_i_glide_ecoul>
-11.7702

> <r_i_glide_erotb>
0.433727

> <r_i_glide_esite>
1.20068

> <r_i_glide_emodel>
-93.5097

> <r_i_glide_energy>
-48.0518

> <r_i_glide_einternal>
4.70306

> <i_i_glide_confnum>
255

> <i_i_glide_posenum>
907

$$$$
C00167
                    3D
 Structure written by MMmdl.
 56 58  0  0  1  0            999 V2000
   -2.0941    9.8897    6.1581 C   0  0  2  0  0  0
   -1.4481   11.2362    5.9365 N   0  0  0  0  0  0
   -1.5051    8.9687    5.2871 O   0  0  0  0  0  0
   -3.5979    9.9563    5.8465 C   0  0  1  0  0  0
   -0.6119   11.7761    6.9363 C   0  0  0  0  0  0
   -1.6828   11.9625    4.7768 C   0  0  0  0  0  0
   -2.5189    8.2291    4.6153 C   0  0  1  0  0  0
   -3.6763    9.2236    4.5142 C   0  0  1  0  0  0
   -4.3563    9.3050    6.8483 O   0  0  0  0  0  0
   -0.0458   13.0255    6.6821 N   0  0  0  0  0  0
   -0.3790   11.2010    7.9983 O   0  0  0  0  0  0
   -1.1301   13.1760    4.5424 C   0  0  0  0  0  0
   -1.9859    7.7163    3.2720 C   0  0  0  0  0  0
   -4.9370    8.6169    4.2984 O   0  0  0  0  0  0
   -0.2444   13.7875    5.5279 C   0  0  0  0  0  0
   -0.8859    6.8624    3.5020 O   0  0  0  0  0  0
    0.3064   14.8793    5.4064 O   0  0  0  0  0  0
   -0.5190    5.5946    2.4338 P   0  0  0  0  0  0
    1.0361    5.1091    2.9133 O   0  0  0  0  0  0
   -1.4562    4.4795    2.6997 O   0  0  0  0  0  0
    2.2217    4.0647    2.2864 P   0  0  0  0  0  0
    1.5408    2.4996    2.3790 O   0  0  0  0  0  0
    2.4369    4.4185    0.8648 O   0  0  0  0  0  0
    2.1338    1.3649    1.7610 C   0  0  1  0  0  0
    3.4886    1.1881    2.1657 O   0  0  0  0  0  0
    1.3803    0.0649    2.1113 C   0  0  1  0  0  0
    3.6574    1.0591    3.5782 C   0  0  1  0  0  0
    1.4470   -0.2169    3.6235 C   0  0  2  0  0  0
    0.0529    0.1059    1.6280 O   0  0  0  0  0  0
    2.9206   -0.2139    4.0758 C   0  0  2  0  0  0
    5.1591    1.0087    3.8998 C   0  0  0  0  0  0
    0.8995   -1.4986    3.8777 O   0  0  0  0  0  0
    2.9811   -0.3010    5.4898 O   0  0  0  0  0  0
    5.8368    0.1054    3.3592 O   0  0  0  0  0  0
   -1.8727    9.5950    7.1851 H   0  0  0  0  0  0
   -3.9435   10.9877    5.7616 H   0  0  0  0  0  0
   -2.3345   11.5538    4.0182 H   0  0  0  0  0  0
   -2.7942    7.3904    5.2574 H   0  0  0  0  0  0
   -3.4844    9.9337    3.7090 H   0  0  0  0  0  0
   -5.2650    9.3530    6.5872 H   0  0  0  0  0  0
    0.5546   13.4136    7.3942 H   0  0  0  0  0  0
   -1.3447   13.6979    3.6211 H   0  0  0  0  0  0
   -2.7634    7.1958    2.7115 H   0  0  0  0  0  0
   -1.6480    8.5528    2.6596 H   0  0  0  0  0  0
   -5.2691    8.9279    3.4642 H   0  0  0  0  0  0
    2.1491    1.4989    0.6792 H   0  0  0  0  0  0
    1.8726   -0.7514    1.5806 H   0  0  0  0  0  0
    3.2397    1.9395    4.0704 H   0  0  0  0  0  0
    0.8855    0.5394    4.1723 H   0  0  0  0  0  0
   -0.4330   -0.5993    2.0398 H   0  0  0  0  0  0
    3.4181   -1.0936    3.6628 H   0  0  0  0  0  0
    0.0996   -1.5815    3.3825 H   0  0  0  0  0  0
    3.6541   -0.9222    5.7199 H   0  0  0  0  0  0
   -0.4357    6.1686    1.0731 O   0  5  0  0  0  0
    3.3744    4.0965    3.2144 O   0  5  0  0  0  0
    5.6115    1.8841    4.6708 O   0  5  0  0  0  0
  1  2  1  0  0  0
  1  3  1  0  0  0
  1  4  1  0  0  0
  1 35  1  0  0  0
  2  5  1  0  0  0
  2  6  1  0  0  0
  3  7  1  0  0  0
  4  8  1  0  0  0
  4  9  1  0  0  0
  4 36  1  0  0  0
  5 10  1  0  0  0
  5 11  2  0  0  0
  6 12  2  0  0  0
  6 37  1  0  0  0
  7 13  1  0  0  0
  7  8  1  0  0  0
  7 38  1  0  0  0
  8 14  1  0  0  0
  8 39  1  0  0  0
  9 40  1  0  0  0
 10 15  1  0  0  0
 10 41  1  0  0  0
 12 15  1  0  0  0
 12 42  1  0  0  0
 13 16  1  0  0  0
 13 43  1  0  0  0
 13 44  1  0  0  0
 14 45  1  0  0  0
 15 17  2  0  0  0
 16 18  1  0  0  0
 18 19  1  0  0  0
 18 20  2  0  0  0
 18 54  1  0  0  0
 19 21  1  0  0  0
 21 22  1  0  0  0
 21 23  2  0  0  0
 21 55  1  0  0  0
 22 24  1  0  0  0
 24 25  1  0  0  0
 24 26  1  0  0  0
 24 46  1  0  0  0
 25 27  1  0  0  0
 26 28  1  0  0  0
 26 29  1  0  0  0
 26 47  1  0  0  0
 27 30  1  0  0  0
 27 31  1  0  0  0
 27 48  1  0  0  0
 28 32  1  0  0  0
 28 30  1  0  0  0
 28 49  1  0  0  0
 29 50  1  0  0  0
 30 33  1  0  0  0
 30 51  1  0  0  0
 31 34  2  0  0  0
 31 56  1  0  0  0
 32 52  1  0  0  0
 33 53  1  0  0  0
M  CHG  3  54  -1  55  -1  56  -1
M  END
> <i_ionizer_Ion_state_n>
7

> <i_ionizer_Tot_Q>
-3

> <s_ionizer_Ion_centers>
54_55_56

> <s_ionizer_Ion_types>
OM_OM_OM

> <s_ionizer_Ion_ctrs_in>
20_24_36

> <r_ionizer_Ionization_penalty>
0.000607108

> <r_ionizer_Ionization_penalty_charging>
0.000607108

> <r_ionizer_Ionization_penalty_neutral>
0

> <s_st_Chirality_1>
1_R_3_2_4_35

> <s_st_Chirality_2>
4_R_9_1_8_36

> <s_st_Chirality_3>
7_R_3_8_13_38

> <s_st_Chirality_4>
8_R_14_4_7_39

> <s_st_Chirality_5>
24_R_22_25_26_46

> <s_st_Chirality_6>
26_R_29_24_28_47

> <s_st_Chirality_7>
27_S_25_31_30_48

> <s_st_Chirality_8>
28_S_32_26_30_49

> <s_st_Chirality_9>
30_S_33_27_28_51

> <i_mmod_Serial_Number-OPLS-2005>
120

> <i_i_glide_lignum>
118

> <r_i_docking_score>
-4.61603

> <r_i_glide_gscore>
-4.61603

> <r_i_glide_lipo>
-0.77601

> <r_i_glide_hbond>
-1.79513

> <r_i_glide_metal>
0

> <r_i_glide_eburp>
-6.28837e-18

> <r_i_glide_evdw>
-19.4229

> <r_i_glide_ecoul>
-12.2898

> <r_i_glide_erotb>
0.462264

> <r_i_glide_esite>
0.275665

> <r_i_glide_emodel>
-76.7994

> <r_i_glide_energy>
-31.7128

> <r_i_glide_einternal>
7.19498

> <i_i_glide_confnum>
60

> <i_i_glide_posenum>
2

$$$$
C07731
                    3D
 Structure written by MMmdl.
 26 26  0  0  1  0            999 V2000
    1.5476    4.9131    1.8242 C   0  0  0  0  0  0
    2.6137    3.8612    1.9047 C   0  0  0  0  0  0
    0.3584    4.8488    2.6045 C   0  0  0  0  0  0
    1.7247    6.0208    0.9569 C   0  0  0  0  0  0
    3.1626    3.5827    3.2527 C   0  0  0  0  0  0
    2.9824    3.2288    0.9146 O   0  0  0  0  0  0
   -0.6158    5.8629    2.4980 C   0  0  0  0  0  0
    0.1183    3.8330    3.4879 O   0  0  0  0  0  0
    0.7477    7.0289    0.8575 C   0  0  0  0  0  0
    3.5271    2.3730    3.7306 C   0  0  0  0  0  0
   -0.4247    6.9501    1.6276 C   0  0  0  0  0  0
    3.5029    1.1000    3.0179 C   0  0  0  0  0  0
    2.6188    0.0881    3.1697 C   0  0  0  0  0  0
    1.3668    0.0029    4.1184 C   0  0  0  0  0  0
    2.8199   -1.0095    2.4282 O   0  0  0  0  0  0
    0.7891   -1.0984    4.2393 O   0  0  0  0  0  0
    2.6064    6.1084    0.3389 H   0  0  0  0  0  0
    3.2813    4.4337    3.9074 H   0  0  0  0  0  0
   -1.5173    5.8130    3.0911 H   0  0  0  0  0  0
    0.7769    3.1562    3.4687 H   0  0  0  0  0  0
    0.8979    7.8619    0.1866 H   0  0  0  0  0  0
    3.8956    2.3873    4.7427 H   0  0  0  0  0  0
   -1.1755    7.7229    1.5524 H   0  0  0  0  0  0
    4.2866    0.9206    2.2977 H   0  0  0  0  0  0
    3.6405   -0.8727    1.9749 H   0  0  0  0  0  0
    1.0637    1.0728    4.6930 O   0  5  0  0  0  0
  1  2  1  0  0  0
  1  3  1  0  0  0
  1  4  2  0  0  0
  2  5  1  0  0  0
  2  6  2  0  0  0
  3  7  2  0  0  0
  3  8  1  0  0  0
  4  9  1  0  0  0
  4 17  1  0  0  0
  5 10  2  0  0  0
  5 18  1  0  0  0
  7 11  1  0  0  0
  7 19  1  0  0  0
  8 20  1  0  0  0
  9 11  2  0  0  0
  9 21  1  0  0  0
 10 12  1  0  0  0
 10 22  1  0  0  0
 11 23  1  0  0  0
 12 13  2  0  0  0
 12 24  1  0  0  0
 13 14  1  0  0  0
 13 15  1  0  0  0
 14 16  2  0  0  0
 14 26  1  0  0  0
 15 25  1  0  0  0
M  CHG  1  26  -1
M  END
> <i_ionizer_Ion_state_n>
2

> <i_ionizer_Tot_Q>
-1

> <s_ionizer_Ion_centers>
26

> <s_ionizer_Ion_types>
OM

> <s_ionizer_Ion_ctrs_in>
16

> <r_ionizer_Ionization_penalty>
0.00118438

> <r_ionizer_Ionization_penalty_charging>
0.00059219

> <r_ionizer_Ionization_penalty_neutral>
0.00059219

> <s_st_EZ_1>
2_5_10_12_Z

> <i_mmod_Serial_Number-OPLS-2005>
907

> <i_i_glide_lignum>
895

> <r_i_docking_score>
-4.60598

> <r_i_glide_gscore>
-4.60598

> <r_i_glide_lipo>
-0.870793

> <r_i_glide_hbond>
-0.463864

> <r_i_glide_metal>
0

> <r_i_glide_eburp>
-2.02119

> <r_i_glide_evdw>
-26.4845

> <r_i_glide_ecoul>
-4.07517

> <r_i_glide_erotb>
1.80172

> <r_i_glide_esite>
-0.525568

> <r_i_glide_emodel>
-47.908

> <r_i_glide_energy>
-30.5596

> <r_i_glide_einternal>
8.32852

> <i_i_glide_confnum>
27

> <i_i_glide_posenum>
467

$$$$
C02110
                    3D
 Structure written by MMmdl.
 49 49  0  0  1  0            999 V2000
    2.6695    2.5068    3.0319 C   0  0  0  0  0  0
    2.3908    1.0224    2.7224 C   0  0  0  0  0  0
    3.7027    2.8972    3.8273 C   0  0  0  0  0  0
    1.8140    3.5017    2.3986 C   0  0  0  0  0  0
    3.2193    0.0744    3.6250 C   0  0  0  0  0  0
    2.7208    0.7439    1.2401 C   0  0  0  0  0  0
    0.9012    0.6953    2.9662 C   0  0  0  0  0  0
    4.7013    1.9215    4.4359 C   0  0  0  0  0  0
    3.9976    4.3419    4.2141 C   0  0  0  0  0  0
    2.2456    4.7258    2.0397 C   0  0  0  0  0  0
    4.6650    0.5361    3.7892 C   0  0  0  0  0  0
    1.4443    5.7612    1.4012 C   0  0  0  0  0  0
    0.1097    5.7035    1.5898 C   0  0  0  0  0  0
    2.0777    6.8662    0.5624 C   0  0  0  0  0  0
   -0.8605    6.6365    1.0374 C   0  0  0  0  0  0
   -1.4760    7.6399    1.6960 C   0  0  0  0  0  0
   -1.3968    7.9749    3.1131 C   0  0  0  0  0  0
   -1.8968    9.1773    3.4738 C   0  0  0  0  0  0
   -0.8452    6.9844    4.1346 C   0  0  0  0  0  0
   -1.9200    9.6893    4.8530 C   0  0  0  0  0  0
   -1.8796    8.9553    5.8378 O   0  0  0  0  0  0
    0.7858    3.2262    2.2267 H   0  0  0  0  0  0
    2.7682    0.0206    4.6173 H   0  0  0  0  0  0
    3.1953   -0.9437    3.2342 H   0  0  0  0  0  0
    2.5663   -0.3056    0.9873 H   0  0  0  0  0  0
    2.0902    1.3312    0.5717 H   0  0  0  0  0  0
    3.7560    0.9903    1.0040 H   0  0  0  0  0  0
    0.7012   -0.3666    2.8177 H   0  0  0  0  0  0
    0.6001    0.9459    3.9841 H   0  0  0  0  0  0
    0.2451    1.2390    2.2859 H   0  0  0  0  0  0
    5.7090    2.3296    4.3489 H   0  0  0  0  0  0
    4.4866    1.8409    5.5022 H   0  0  0  0  0  0
    4.1667    4.4097    5.2890 H   0  0  0  0  0  0
    4.8999    4.6874    3.7092 H   0  0  0  0  0  0
    3.1899    5.0332    3.9788 H   0  0  0  0  0  0
    3.2828    4.9529    2.2424 H   0  0  0  0  0  0
    5.2227   -0.1739    4.4006 H   0  0  0  0  0  0
    5.1630    0.5640    2.8199 H   0  0  0  0  0  0
   -0.2610    4.9029    2.2105 H   0  0  0  0  0  0
    1.6494    7.8376    0.8090 H   0  0  0  0  0  0
    3.1491    6.9607    0.7281 H   0  0  0  0  0  0
    1.9125    6.6756   -0.4983 H   0  0  0  0  0  0
   -1.1059    6.5484   -0.0099 H   0  0  0  0  0  0
   -2.1330    8.2549    1.0977 H   0  0  0  0  0  0
   -2.3067    9.8298    2.7161 H   0  0  0  0  0  0
   -1.5090    6.8938    4.9946 H   0  0  0  0  0  0
   -0.7592    5.9834    3.7125 H   0  0  0  0  0  0
    0.1373    7.3000    4.4864 H   0  0  0  0  0  0
   -1.9777   10.7716    4.9627 H   0  0  0  0  0  0
  1  2  1  0  0  0
  1  3  2  0  0  0
  1  4  1  0  0  0
  2  5  1  0  0  0
  2  6  1  0  0  0
  2  7  1  0  0  0
  3  8  1  0  0  0
  3  9  1  0  0  0
  4 10  2  0  0  0
  4 22  1  0  0  0
  5 11  1  0  0  0
  5 23  1  0  0  0
  5 24  1  0  0  0
  6 25  1  0  0  0
  6 26  1  0  0  0
  6 27  1  0  0  0
  7 28  1  0  0  0
  7 29  1  0  0  0
  7 30  1  0  0  0
  8 11  1  0  0  0
  8 31  1  0  0  0
  8 32  1  0  0  0
  9 33  1  0  0  0
  9 34  1  0  0  0
  9 35  1  0  0  0
 10 12  1  0  0  0
 10 36  1  0  0  0
 11 37  1  0  0  0
 11 38  1  0  0  0
 12 13  2  0  0  0
 12 14  1  0  0  0
 13 15  1  0  0  0
 13 39  1  0  0  0
 14 40  1  0  0  0
 14 41  1  0  0  0
 14 42  1  0  0  0
 15 16  2  0  0  0
 15 43  1  0  0  0
 16 17  1  0  0  0
 16 44  1  0  0  0
 17 18  2  0  0  0
 17 19  1  0  0  0
 18 20  1  0  0  0
 18 45  1  0  0  0
 19 46  1  0  0  0
 19 47  1  0  0  0
 19 48  1  0  0  0
 20 21  2  0  0  0
 20 49  1  0  0  0
M  END
> <i_ionizer_Ion_state_n>
0

> <i_ionizer_Tot_Q>
0

> <s_ionizer_Ion_centers>


> <s_ionizer_Ion_types>


> <s_ionizer_Ion_ctrs_in>


> <r_ionizer_Ionization_penalty>
0

> <r_ionizer_Ionization_penalty_charging>
0

> <r_ionizer_Ionization_penalty_neutral>
0

> <s_st_EZ_1>
2_1_3_8_Z

> <s_st_EZ_2>
1_4_10_12_E

> <s_st_EZ_3>
13_15_16_17_Z

> <i_mmod_Serial_Number-OPLS-2005>
472

> <i_i_glide_lignum>
467

> <r_i_docking_score>
-4.60455

> <r_i_glide_gscore>
-4.60455

> <r_i_glide_lipo>
-1.56256

> <r_i_glide_hbond>
0

> <r_i_glide_metal>
0

> <r_i_glide_eburp>
-1.63299

> <r_i_glide_evdw>
-25.5795

> <r_i_glide_ecoul>
-1.31037

> <r_i_glide_erotb>
1.28025

> <r_i_glide_esite>
-0.511852

> <r_i_glide_emodel>
-33.987

> <r_i_glide_energy>
-26.8899

> <r_i_glide_einternal>
14.7229

> <i_i_glide_confnum>
24

> <i_i_glide_posenum>
706

$$$$
C00402
                    3D
 Structure written by MMmdl.
 15 14  0  0  1  0            999 V2000
    2.4461    0.4777    3.4908 C   0  0  2  0  0  0
    1.9193    1.7113    4.2783 C   0  0  0  0  0  0
    1.4376   -0.6833    3.4167 C   0  0  0  0  0  0
    0.6254    2.3096    3.7059 C   0  0  0  0  0  0
    0.8282   -1.0306    4.4531 O   0  0  0  0  0  0
    0.1042    3.2841    4.2939 O   0  0  0  0  0  0
    2.6658    0.7838    2.4664 H   0  0  0  0  0  0
    1.7244    1.4354    5.3157 H   0  0  0  0  0  0
    2.6717    2.5011    4.3000 H   0  0  0  0  0  0
    4.0142   -0.8260    3.5155 H   0  0  0  0  0  0
    4.3845    0.6878    4.0806 H   0  0  0  0  0  0
    3.6925   -0.0495    4.0753 N   0  3  0  0  0  0
    3.5126   -0.3612    5.0184 H   0  0  0  0  0  0
    1.3073   -1.2329    2.3000 O   0  5  0  0  0  0
    0.1671    1.7607    2.6814 O   0  5  0  0  0  0
  1  2  1  0  0  0
  1  3  1  0  0  0
  1  7  1  0  0  0
  1 12  1  0  0  0
  2  4  1  0  0  0
  2  8  1  0  0  0
  2  9  1  0  0  0
  3  5  2  0  0  0
  3 14  1  0  0  0
  4  6  2  0  0  0
  4 15  1  0  0  0
 10 12  1  0  0  0
 11 12  1  0  0  0
 12 13  1  0  0  0
M  CHG  3  12   1  14  -1  15  -1
M  END
> <i_ionizer_Ion_state_n>
7

> <i_ionizer_Tot_Q>
-1

> <s_ionizer_Ion_centers>
12_14_15

> <s_ionizer_Ion_types>
N5_OM_OM

> <s_ionizer_Ion_ctrs_in>
4_6_8

> <r_ionizer_Ionization_penalty>
0.00137171

> <r_ionizer_Ionization_penalty_charging>
0.00137171

> <r_ionizer_Ionization_penalty_neutral>
0

> <s_st_Chirality_1>
1_R_12_3_2_7

> <i_mmod_Serial_Number-OPLS-2005>
225

> <i_i_glide_lignum>
223

> <r_i_docking_score>
-4.59875

> <r_i_glide_gscore>
-4.59875

> <r_i_glide_lipo>
-0.153308

> <r_i_glide_hbond>
-1.09826

> <r_i_glide_metal>
0

> <r_i_glide_eburp>
-2.5

> <r_i_glide_evdw>
-6.64688

> <r_i_glide_ecoul>
-8.41957

> <r_i_glide_erotb>
0.913265

> <r_i_glide_esite>
-0.386746

> <r_i_glide_emodel>
-45.1007

> <r_i_glide_energy>
-15.0665

> <r_i_glide_einternal>
0.637204

> <i_i_glide_confnum>
1

> <i_i_glide_posenum>
705

$$$$
C00004
                    3D
 Structure written by MMmdl.
 71 75  0  0  1  0            999 V2000
    3.8293    0.0250    2.1421 N   0  0  0  0  0  0
    4.7841   -0.3588    1.2276 C   0  0  0  0  0  0
    2.3609    0.1259    1.8799 C   0  0  2  0  0  0
    4.5282    0.2820    3.3031 C   0  0  0  0  0  0
    6.0249   -0.3102    1.9190 C   0  0  0  0  0  0
    4.6050   -0.7207   -0.0761 N   0  0  0  0  0  0
    2.1165    1.3859    1.3246 O   0  0  0  0  0  0
    1.6040    0.0593    3.2095 C   0  0  1  0  0  0
    5.8203    0.0998    3.2301 N   0  0  0  0  0  0
    7.1652   -0.6752    1.1604 C   0  0  0  0  0  0
    5.7648   -1.0367   -0.6597 C   0  0  0  0  0  0
    1.4004    2.2210    2.2357 C   0  0  1  0  0  0
    1.5347    1.5276    3.5964 C   0  0  1  0  0  0
    0.3260   -0.5228    3.0382 O   0  0  0  0  0  0
    6.9945   -1.0347   -0.1334 N   0  0  0  0  0  0
    8.4067   -0.6821    1.6633 N   0  0  0  0  0  0
    1.9621    3.6560    2.1665 C   0  0  0  0  0  0
    0.4688    1.7861    4.4901 O   0  0  0  0  0  0
    1.7919    4.2724    0.9010 O   0  0  0  0  0  0
    1.7515    5.9646    0.7024 P   0  0  0  0  0  0
    0.6072    6.4836    1.8497 O   0  0  0  0  0  0
    3.0735    6.4874    1.1221 O   0  0  0  0  0  0
   -0.9555    6.0255    2.3455 P   0  0  0  0  0  0
   -1.3985    7.1131    3.5748 O   0  0  0  0  0  0
   -1.8703    6.2385    1.2002 O   0  0  0  0  0  0
   -2.5451    7.9306    3.4685 C   0  0  0  0  0  0
   -2.6964    8.7263    4.7700 C   0  0  1  0  0  0
   -1.8951    9.8976    4.7196 O   0  0  0  0  0  0
   -4.0943    9.3011    4.9988 C   0  0  2  0  0  0
   -2.3726   10.8205    5.6459 C   0  0  2  0  0  0
   -3.8331   10.4505    5.9749 C   0  0  2  0  0  0
   -5.0125    8.3418    5.4905 O   0  0  0  0  0  0
   -2.2430   12.1833    5.0291 N   0  0  0  0  0  0
   -3.9626   10.0445    7.3265 O   0  0  0  0  0  0
   -1.2736   13.0669    5.4779 C   0  0  0  0  0  0
   -2.9846   12.5444    3.9178 C   0  0  0  0  0  0
   -1.0346   14.2785    4.9218 C   0  0  0  0  0  0
   -2.8369   13.7208    3.2852 C   0  0  0  0  0  0
   -1.8341   14.7680    3.7148 C   0  0  0  0  0  0
    0.0154   15.1157    5.5077 C   0  0  0  0  0  0
    0.4492   14.6826    6.6952 N   0  0  0  0  0  0
    0.4953   16.1278    4.9990 O   0  0  0  0  0  0
    2.1458   -0.6881    1.1861 H   0  0  0  0  0  0
    4.0470    0.6103    4.2128 H   0  0  0  0  0  0
    2.1491   -0.5316    3.9471 H   0  0  0  0  0  0
    5.7004   -1.3341   -1.6961 H   0  0  0  0  0  0
    0.3646    2.1900    1.8990 H   0  0  0  0  0  0
    2.4741    1.8144    4.0712 H   0  0  0  0  0  0
    0.4300   -1.4614    3.0998 H   0  0  0  0  0  0
    9.1843   -0.9513    1.0789 H   0  0  0  0  0  0
    8.5571   -0.4179    2.6263 H   0  0  0  0  0  0
    1.5358    4.2930    2.9418 H   0  0  0  0  0  0
    3.0341    3.6302    2.3579 H   0  0  0  0  0  0
   -0.3191    1.3830    4.1387 H   0  0  0  0  0  0
   -2.4716    8.5951    2.6091 H   0  0  0  0  0  0
   -3.4130    7.2904    3.3096 H   0  0  0  0  0  0
   -2.3902    8.1241    5.6276 H   0  0  0  0  0  0
   -4.4779    9.7066    4.0618 H   0  0  0  0  0  0
   -1.7294   10.8284    6.5271 H   0  0  0  0  0  0
   -4.5102   11.2883    5.8051 H   0  0  0  0  0  0
   -5.8092    8.7895    5.7300 H   0  0  0  0  0  0
   -3.7259   10.7705    7.8831 H   0  0  0  0  0  0
   -0.6821   12.7525    6.3265 H   0  0  0  0  0  0
   -3.7148   11.8495    3.5327 H   0  0  0  0  0  0
   -3.4424   13.9474    2.4200 H   0  0  0  0  0  0
   -2.3648   15.6887    3.9598 H   0  0  0  0  0  0
   -1.1653   14.9697    2.8771 H   0  0  0  0  0  0
    1.1718   15.1956    7.1781 H   0  0  0  0  0  0
    0.0467   13.8529    7.1051 H   0  0  0  0  0  0
    1.2517    6.2640   -0.6574 O   0  5  0  0  0  0
   -0.8670    4.6803    2.9574 O   0  5  0  0  0  0
  1  2  1  0  0  0
  1  3  1  0  0  0
  1  4  1  0  0  0
  2  5  2  0  0  0
  2  6  1  0  0  0
  3  7  1  0  0  0
  3  8  1  0  0  0
  3 43  1  0  0  0
  4  9  2  0  0  0
  4 44  1  0  0  0
  5 10  1  0  0  0
  5  9  1  0  0  0
  6 11  2  0  0  0
  7 12  1  0  0  0
  8 13  1  0  0  0
  8 14  1  0  0  0
  8 45  1  0  0  0
 10 15  2  0  0  0
 10 16  1  0  0  0
 11 15  1  0  0  0
 11 46  1  0  0  0
 12 17  1  0  0  0
 12 13  1  0  0  0
 12 47  1  0  0  0
 13 18  1  0  0  0
 13 48  1  0  0  0
 14 49  1  0  0  0
 16 50  1  0  0  0
 16 51  1  0  0  0
 17 19  1  0  0  0
 17 52  1  0  0  0
 17 53  1  0  0  0
 18 54  1  0  0  0
 19 20  1  0  0  0
 20 21  1  0  0  0
 20 22  2  0  0  0
 20 70  1  0  0  0
 21 23  1  0  0  0
 23 24  1  0  0  0
 23 25  2  0  0  0
 23 71  1  0  0  0
 24 26  1  0  0  0
 26 27  1  0  0  0
 26 55  1  0  0  0
 26 56  1  0  0  0
 27 28  1  0  0  0
 27 29  1  0  0  0
 27 57  1  0  0  0
 28 30  1  0  0  0
 29 31  1  0  0  0
 29 32  1  0  0  0
 29 58  1  0  0  0
 30 33  1  0  0  0
 30 31  1  0  0  0
 30 59  1  0  0  0
 31 34  1  0  0  0
 31 60  1  0  0  0
 32 61  1  0  0  0
 33 35  1  0  0  0
 33 36  1  0  0  0
 34 62  1  0  0  0
 35 37  2  0  0  0
 35 63  1  0  0  0
 36 38  2  0  0  0
 36 64  1  0  0  0
 37 39  1  0  0  0
 37 40  1  0  0  0
 38 39  1  0  0  0
 38 65  1  0  0  0
 39 66  1  0  0  0
 39 67  1  0  0  0
 40 41  1  0  0  0
 40 42  2  0  0  0
 41 68  1  0  0  0
 41 69  1  0  0  0
M  CHG  2  70  -1  71  -1
M  END
> <i_ionizer_Ion_state_n>
6

> <i_ionizer_Tot_Q>
-2

> <s_ionizer_Ion_centers>
70_71

> <s_ionizer_Ion_types>
OM_OM

> <s_ionizer_Ion_ctrs_in>
22_26

> <r_ionizer_Ionization_penalty>
3.36536e-05

> <r_ionizer_Ionization_penalty_charging>
1.49178e-05

> <r_ionizer_Ionization_penalty_neutral>
1.87357e-05

> <s_st_Chirality_1>
3_R_7_1_8_43

> <s_st_Chirality_2>
8_R_14_3_13_45

> <s_st_Chirality_3>
12_R_7_13_17_47

> <s_st_Chirality_4>
13_R_18_8_12_48

> <s_st_Chirality_5>
27_R_28_29_26_57

> <s_st_Chirality_6>
29_R_32_31_27_58

> <s_st_Chirality_7>
30_R_28_33_31_59

> <s_st_Chirality_8>
31_R_34_30_29_60

> <s_st_EZ_1>
33_35_37_40_E

> <s_st_EZ_2>
33_36_38_39_Z

> <i_mmod_Serial_Number-OPLS-2005>
4

> <i_i_glide_lignum>
4

> <r_i_docking_score>
-4.59753

> <r_i_glide_gscore>
-4.59753

> <r_i_glide_lipo>
-0.921086

> <r_i_glide_hbond>
-1.23321

> <r_i_glide_metal>
0

> <r_i_glide_eburp>
-3.83808e-17

> <r_i_glide_evdw>
-24.73

> <r_i_glide_ecoul>
-6.37607

> <r_i_glide_erotb>
0.372122

> <r_i_glide_esite>
-0.199353

> <r_i_glide_emodel>
-71.1675

> <r_i_glide_energy>
-31.106

> <r_i_glide_einternal>
6.98947

> <i_i_glide_confnum>
187

> <i_i_glide_posenum>
350

$$$$
C05674
                    3D
 Structure written by MMmdl.
 55 56  0  0  1  0            999 V2000
   -2.7765    7.7037    2.6063 C   0  0  2  0  0  0
   -2.8095    8.4396    3.9262 N   0  0  0  0  0  0
   -2.0663    6.5100    2.7753 O   0  0  0  0  0  0
   -2.0516    8.5488    1.5484 C   0  0  1  0  0  0
   -3.8352    8.1432    4.8537 C   0  0  0  0  0  0
   -1.8796    9.4269    4.2210 C   0  0  0  0  0  0
   -1.0055    6.4256    1.8269 C   0  0  1  0  0  0
   -0.6836    7.8863    1.5068 C   0  0  1  0  0  0
   -2.7130    8.4811    0.2988 O   0  0  0  0  0  0
   -3.8404    8.8448    6.0295 N   0  0  0  0  0  0
   -4.6986    7.2987    4.6199 O   0  0  0  0  0  0
   -1.9025   10.1136    5.3837 C   0  0  0  0  0  0
    0.1657    5.6398    2.4300 C   0  0  0  0  0  0
   -0.0279    8.0521    0.2631 O   0  0  0  0  0  0
   -2.9527    9.7764    6.3176 C   0  0  0  0  0  0
   -0.2547    4.3245    2.7256 O   0  0  0  0  0  0
   -3.0435   10.4097    7.4948 N   0  0  0  0  0  0
    0.8619    3.1216    3.1635 P   0  0  0  0  0  0
    0.5904    1.8645    2.0495 O   0  0  0  0  0  0
    2.2241    3.6518    2.9269 O   0  0  0  0  0  0
    1.1447    0.2688    1.8506 P   0  0  0  0  0  0
    2.0646    0.1152    3.4733 C   0  0  0  0  0  0
    0.0019   -0.6706    1.8700 O   0  0  0  0  0  0
    3.5027   -0.3602    3.1752 C   0  0  0  0  0  0
    4.5952    0.5763    3.5802 N   0  3  0  0  0  0
    4.3694    0.9670    4.9965 C   0  0  0  0  0  0
    5.9256   -0.0795    3.4794 C   0  0  0  0  0  0
    4.5818    1.8062    2.7451 C   0  0  0  0  0  0
   -3.8118    7.4700    2.3530 H   0  0  0  0  0  0
   -1.9870    9.5954    1.8496 H   0  0  0  0  0  0
   -1.1043    9.6706    3.5107 H   0  0  0  0  0  0
   -1.3816    5.9252    0.9330 H   0  0  0  0  0  0
   -0.0593    8.3092    2.2928 H   0  0  0  0  0  0
   -3.3742    9.1579    0.2922 H   0  0  0  0  0  0
   -1.1560   10.8720    5.5716 H   0  0  0  0  0  0
    1.0000    5.5992    1.7301 H   0  0  0  0  0  0
    0.5283    6.1257    3.3361 H   0  0  0  0  0  0
    0.1726    8.9731    0.1666 H   0  0  0  0  0  0
   -2.3778   11.1279    7.7395 H   0  0  0  0  0  0
   -3.7840   10.1632    8.1353 H   0  0  0  0  0  0
    2.0582    1.0807    3.9770 H   0  0  0  0  0  0
    1.5347   -0.5883    4.1140 H   0  0  0  0  0  0
    3.6596   -1.3208    3.6694 H   0  0  0  0  0  0
    3.5862   -0.5605    2.1054 H   0  0  0  0  0  0
    5.1404    1.6541    5.3488 H   0  0  0  0  0  0
    3.4056    1.4634    5.1212 H   0  0  0  0  0  0
    4.3805    0.0962    5.6540 H   0  0  0  0  0  0
    6.7101    0.5629    3.8821 H   0  0  0  0  0  0
    5.9466   -1.0168    4.0375 H   0  0  0  0  0  0
    6.1957   -0.2981    2.4463 H   0  0  0  0  0  0
    5.3028    2.5374    3.1136 H   0  0  0  0  0  0
    4.8449    1.5986    1.7078 H   0  0  0  0  0  0
    3.5981    2.2782    2.7539 H   0  0  0  0  0  0
    0.4948    2.6409    4.5140 O   0  5  0  0  0  0
    2.1333    0.2187    0.7500 O   0  5  0  0  0  0
  1  2  1  0  0  0
  1  3  1  0  0  0
  1  4  1  0  0  0
  1 29  1  0  0  0
  2  5  1  0  0  0
  2  6  1  0  0  0
  3  7  1  0  0  0
  4  8  1  0  0  0
  4  9  1  0  0  0
  4 30  1  0  0  0
  5 10  1  0  0  0
  5 11  2  0  0  0
  6 12  2  0  0  0
  6 31  1  0  0  0
  7 13  1  0  0  0
  7  8  1  0  0  0
  7 32  1  0  0  0
  8 14  1  0  0  0
  8 33  1  0  0  0
  9 34  1  0  0  0
 10 15  2  0  0  0
 12 15  1  0  0  0
 12 35  1  0  0  0
 13 16  1  0  0  0
 13 36  1  0  0  0
 13 37  1  0  0  0
 14 38  1  0  0  0
 15 17  1  0  0  0
 16 18  1  0  0  0
 17 39  1  0  0  0
 17 40  1  0  0  0
 18 19  1  0  0  0
 18 20  2  0  0  0
 18 54  1  0  0  0
 19 21  1  0  0  0
 21 22  1  0  0  0
 21 23  2  0  0  0
 21 55  1  0  0  0
 22 24  1  0  0  0
 22 41  1  0  0  0
 22 42  1  0  0  0
 24 25  1  0  0  0
 24 43  1  0  0  0
 24 44  1  0  0  0
 25 26  1  0  0  0
 25 27  1  0  0  0
 25 28  1  0  0  0
 26 45  1  0  0  0
 26 46  1  0  0  0
 26 47  1  0  0  0
 27 48  1  0  0  0
 27 49  1  0  0  0
 27 50  1  0  0  0
 28 51  1  0  0  0
 28 52  1  0  0  0
 28 53  1  0  0  0
M  CHG  3  25   1  54  -1  55  -1
M  END
> <i_ionizer_Ion_state_n>
3

> <i_ionizer_Tot_Q>
-1

> <s_ionizer_Ion_centers>
54_55

> <s_ionizer_Ion_types>
OM_OM

> <s_ionizer_Ion_ctrs_in>
20_24

> <r_ionizer_Ionization_penalty>
2.61947e-05

> <r_ionizer_Ionization_penalty_charging>
2.61947e-05

> <r_ionizer_Ionization_penalty_neutral>
0

> <s_st_Chirality_1>
1_R_3_2_4_29

> <s_st_Chirality_2>
4_R_9_1_8_30

> <s_st_Chirality_3>
7_R_3_8_13_32

> <s_st_Chirality_4>
8_R_14_4_7_33

> <i_mmod_Serial_Number-OPLS-2005>
783

> <i_i_glide_lignum>
774

> <r_i_docking_score>
-4.5956

> <r_i_glide_gscore>
-4.5956

> <r_i_glide_lipo>
-0.915307

> <r_i_glide_hbond>
-1.97143

> <r_i_glide_metal>
0

> <r_i_glide_eburp>
-0.217244

> <r_i_glide_evdw>
-16.2594

> <r_i_glide_ecoul>
-18.0003

> <r_i_glide_erotb>
0.831853

> <r_i_glide_esite>
0.777317

> <r_i_glide_emodel>
-82.0545

> <r_i_glide_energy>
-34.2597

> <r_i_glide_einternal>
13.1306

> <i_i_glide_confnum>
334

> <i_i_glide_posenum>
498

$$$$
C00376
                    3D
 Structure written by MMmdl.
 49 49  0  0  1  0            999 V2000
    2.6633    2.8325    3.3230 C   0  0  0  0  0  0
    2.3341    1.3314    3.1944 C   0  0  0  0  0  0
    3.8154    3.2733    3.8996 C   0  0  0  0  0  0
    1.6742    3.7816    2.8294 C   0  0  0  0  0  0
    3.2895    0.4500    4.0370 C   0  0  0  0  0  0
    2.4255    0.9213    1.7092 C   0  0  0  0  0  0
    0.9002    1.0496    3.6965 C   0  0  0  0  0  0
    4.8844    2.3346    4.4449 C   0  0  0  0  0  0
    4.1888    4.7406    4.0834 C   0  0  0  0  0  0
    1.1928    4.8013    3.5657 C   0  0  0  0  0  0
    4.7443    0.8990    3.9375 C   0  0  0  0  0  0
    0.2006    5.7718    3.1253 C   0  0  0  0  0  0
   -0.2971    6.6069    4.0610 C   0  0  0  0  0  0
   -0.2616    5.8378    1.6735 C   0  0  0  0  0  0
   -1.2751    7.6530    3.8256 C   0  0  0  0  0  0
   -1.7359    8.4361    4.8174 C   0  0  0  0  0  0
   -2.7184    9.5041    4.6796 C   0  0  0  0  0  0
   -4.0083    9.1642    4.8987 C   0  0  0  0  0  0
   -2.3052   10.9255    4.2999 C   0  0  0  0  0  0
   -5.1419   10.0995    4.8264 C   0  0  0  0  0  0
   -6.2936    9.7741    5.1055 O   0  0  0  0  0  0
    1.3270    3.6444    1.8175 H   0  0  0  0  0  0
    2.9973    0.4885    5.0878 H   0  0  0  0  0  0
    3.2018   -0.5971    3.7444 H   0  0  0  0  0  0
    2.2285   -0.1431    1.5766 H   0  0  0  0  0  0
    1.7002    1.4602    1.0989 H   0  0  0  0  0  0
    3.4122    1.1271    1.2940 H   0  0  0  0  0  0
    0.6753   -0.0173    3.6708 H   0  0  0  0  0  0
    0.7650    1.3881    4.7246 H   0  0  0  0  0  0
    0.1460    1.5474    3.0860 H   0  0  0  0  0  0
    5.8741    2.7070    4.1783 H   0  0  0  0  0  0
    4.8258    2.3544    5.5338 H   0  0  0  0  0  0
    5.1942    4.9204    3.7020 H   0  0  0  0  0  0
    3.5318    5.4356    3.5640 H   0  0  0  0  0  0
    4.1817    4.9958    5.1432 H   0  0  0  0  0  0
    1.5766    4.8998    4.5713 H   0  0  0  0  0  0
    5.3862    0.2356    4.5177 H   0  0  0  0  0  0
    5.0879    0.8333    2.9050 H   0  0  0  0  0  0
    0.0659    6.4983    5.0734 H   0  0  0  0  0  0
   -1.3313    6.0343    1.6052 H   0  0  0  0  0  0
    0.2696    6.6291    1.1442 H   0  0  0  0  0  0
   -0.0963    4.9007    1.1446 H   0  0  0  0  0  0
   -1.6314    7.8082    2.8207 H   0  0  0  0  0  0
   -1.3421    8.2505    5.8068 H   0  0  0  0  0  0
   -4.2525    8.1428    5.1536 H   0  0  0  0  0  0
   -2.9692   11.3399    3.5412 H   0  0  0  0  0  0
   -2.3340   11.5740    5.1759 H   0  0  0  0  0  0
   -1.3046   10.9751    3.8751 H   0  0  0  0  0  0
   -4.9086   11.1152    4.5097 H   0  0  0  0  0  0
  1  2  1  0  0  0
  1  3  2  0  0  0
  1  4  1  0  0  0
  2  5  1  0  0  0
  2  6  1  0  0  0
  2  7  1  0  0  0
  3  8  1  0  0  0
  3  9  1  0  0  0
  4 10  2  0  0  0
  4 22  1  0  0  0
  5 11  1  0  0  0
  5 23  1  0  0  0
  5 24  1  0  0  0
  6 25  1  0  0  0
  6 26  1  0  0  0
  6 27  1  0  0  0
  7 28  1  0  0  0
  7 29  1  0  0  0
  7 30  1  0  0  0
  8 11  1  0  0  0
  8 31  1  0  0  0
  8 32  1  0  0  0
  9 33  1  0  0  0
  9 34  1  0  0  0
  9 35  1  0  0  0
 10 12  1  0  0  0
 10 36  1  0  0  0
 11 37  1  0  0  0
 11 38  1  0  0  0
 12 13  2  0  0  0
 12 14  1  0  0  0
 13 15  1  0  0  0
 13 39  1  0  0  0
 14 40  1  0  0  0
 14 41  1  0  0  0
 14 42  1  0  0  0
 15 16  2  0  0  0
 15 43  1  0  0  0
 16 17  1  0  0  0
 16 44  1  0  0  0
 17 18  2  0  0  0
 17 19  1  0  0  0
 18 20  1  0  0  0
 18 45  1  0  0  0
 19 46  1  0  0  0
 19 47  1  0  0  0
 19 48  1  0  0  0
 20 21  2  0  0  0
 20 49  1  0  0  0
M  END
> <i_ionizer_Ion_state_n>
0

> <i_ionizer_Tot_Q>
0

> <s_ionizer_Ion_centers>


> <s_ionizer_Ion_types>


> <s_ionizer_Ion_ctrs_in>


> <r_ionizer_Ionization_penalty>
0

> <r_ionizer_Ionization_penalty_charging>
0

> <r_ionizer_Ionization_penalty_neutral>
0

> <s_st_EZ_1>
2_1_3_8_Z

> <s_st_EZ_2>
1_4_10_12_E

> <s_st_EZ_3>
13_15_16_17_E

> <i_mmod_Serial_Number-OPLS-2005>
214

> <i_i_glide_lignum>
212

> <r_i_docking_score>
-4.58803

> <r_i_glide_gscore>
-4.58803

> <r_i_glide_lipo>
-1.45924

> <r_i_glide_hbond>
0

> <r_i_glide_metal>
0

> <r_i_glide_eburp>
-1.63299

> <r_i_glide_evdw>
-31.3546

> <r_i_glide_ecoul>
-0.565562

> <r_i_glide_erotb>
1.28025

> <r_i_glide_esite>
-0.211125

> <r_i_glide_emodel>
-41.6205

> <r_i_glide_energy>
-31.9202

> <r_i_glide_einternal>
5.0058

> <i_i_glide_confnum>
29

> <i_i_glide_posenum>
150

$$$$
C05984
                    3D
 Structure written by MMmdl.
 14 13  0  0  1  0            999 V2000
    1.6335    1.4686    4.0065 C   0  0  2  0  0  0
    0.8991    2.7229    3.5016 C   0  0  0  0  0  0
    3.0745    1.3612    3.4591 C   0  0  0  0  0  0
    0.9022    0.3131    3.6419 O   0  0  0  0  0  0
    0.1001    3.3002    4.2734 O   0  0  0  0  0  0
    3.9853    2.5050    3.9265 C   0  0  0  0  0  0
    1.6644    1.5236    5.0955 H   0  0  0  0  0  0
    3.5152    0.4050    3.7457 H   0  0  0  0  0  0
    3.0537    1.3719    2.3682 H   0  0  0  0  0  0
    1.3522   -0.4432    3.9835 H   0  0  0  0  0  0
    4.9810    2.4069    3.4938 H   0  0  0  0  0  0
    3.5866    3.4740    3.6252 H   0  0  0  0  0  0
    4.0961    2.5089    5.0109 H   0  0  0  0  0  0
    1.1527    3.0874    2.3319 O   0  5  0  0  0  0
  1  2  1  0  0  0
  1  3  1  0  0  0
  1  4  1  0  0  0
  1  7  1  0  0  0
  2  5  2  0  0  0
  2 14  1  0  0  0
  3  6  1  0  0  0
  3  8  1  0  0  0
  3  9  1  0  0  0
  4 10  1  0  0  0
  6 11  1  0  0  0
  6 12  1  0  0  0
  6 13  1  0  0  0
M  CHG  1  14  -1
M  END
> <i_ionizer_Ion_state_n>
1

> <i_ionizer_Tot_Q>
-1

> <s_ionizer_Ion_centers>
14

> <s_ionizer_Ion_types>
OM

> <s_ionizer_Ion_ctrs_in>
5

> <r_ionizer_Ionization_penalty>
0.00059219

> <r_ionizer_Ionization_penalty_charging>
0.00059219

> <r_ionizer_Ionization_penalty_neutral>
0

> <s_st_Chirality_1>
1_S_4_2_3_7

> <i_mmod_Serial_Number-OPLS-2005>
840

> <i_i_glide_lignum>
828

> <r_i_docking_score>
-4.57467

> <r_i_glide_gscore>
-4.57467

> <r_i_glide_lipo>
-0.211687

> <r_i_glide_hbond>
-0.7

> <r_i_glide_metal>
0

> <r_i_glide_eburp>
-2.5

> <r_i_glide_evdw>
-8.82743

> <r_i_glide_ecoul>
-4.81232

> <r_i_glide_erotb>
0

> <r_i_glide_esite>
0.0244424

> <r_i_glide_emodel>
-28.7237

> <r_i_glide_energy>
-13.6398

> <r_i_glide_einternal>
0.668139

> <i_i_glide_confnum>
1

> <i_i_glide_posenum>
214

$$$$
C00957
                    3D
 Structure written by MMmdl.
 10  9  0  0  1  0            999 V2000
    1.5039    0.7003    3.6493 C   0  0  0  0  0  0
    1.0668   -0.4018    2.6607 C   0  0  0  0  0  0
    2.7823    0.4323    4.4522 C   0  0  0  0  0  0
    0.8627    1.7437    3.7902 O   0  0  0  0  0  0
    0.1021   -0.1232    1.9134 O   0  0  0  0  0  0
    4.2778    0.1054    3.4741 S   0  0  0  0  0  0
    2.9746    1.2913    5.0953 H   0  0  0  0  0  0
    2.6080   -0.4215    5.1072 H   0  0  0  0  0  0
    4.9423   -0.5289    4.4440 H   0  0  0  0  0  0
    1.7197   -1.4686    2.7017 O   0  5  0  0  0  0
  1  2  1  0  0  0
  1  3  1  0  0  0
  1  4  2  0  0  0
  2  5  2  0  0  0
  2 10  1  0  0  0
  3  6  1  0  0  0
  3  7  1  0  0  0
  3  8  1  0  0  0
  6  9  1  0  0  0
M  CHG  1  10  -1
M  END
> <i_ionizer_Ion_state_n>
1

> <i_ionizer_Tot_Q>
-1

> <s_ionizer_Ion_centers>
10

> <s_ionizer_Ion_types>
OM

> <s_ionizer_Ion_ctrs_in>
5

> <r_ionizer_Ionization_penalty>
0.00246284

> <r_ionizer_Ionization_penalty_charging>
0.00059219

> <r_ionizer_Ionization_penalty_neutral>
0.00187065

> <i_mmod_Serial_Number-OPLS-2005>
366

> <i_i_glide_lignum>
362

> <r_i_docking_score>
-4.55829

> <r_i_glide_gscore>
-4.55829

> <r_i_glide_lipo>
-0.0781669

> <r_i_glide_hbond>
-0.674246

> <r_i_glide_metal>
0

> <r_i_glide_eburp>
-2.5

> <r_i_glide_evdw>
-14.4666

> <r_i_glide_ecoul>
-5.81351

> <r_i_glide_erotb>
1.07274

> <r_i_glide_esite>
-0.639932

> <r_i_glide_emodel>
-34.2752

> <r_i_glide_energy>
-20.2801

> <r_i_glide_einternal>
1.31665

> <i_i_glide_confnum>
1

> <i_i_glide_posenum>
870

$$$$
C02512
                    3D
 Structure written by MMmdl.
 14 13  0  0  1  0            999 V2000
    2.2754    0.4372    4.2145 C   0  0  1  0  0  0
    2.2016    1.6677    3.2877 C   0  0  0  0  0  0
    1.2994   -0.6734    3.8031 C   0  0  0  0  0  0
    1.0235    2.5064    3.5520 C   0  0  0  0  0  0
    1.3356   -1.0980    2.6273 O   0  0  0  0  0  0
    0.0998    3.1694    3.7620 N   0  0  0  0  0  0
    2.0222    0.7447    5.2299 H   0  0  0  0  0  0
    3.0875    2.2950    3.3942 H   0  0  0  0  0  0
    2.1460    1.3595    2.2429 H   0  0  0  0  0  0
    3.6353   -0.9332    4.8561 H   0  0  0  0  0  0
    3.8815   -0.4368    3.3056 H   0  0  0  0  0  0
    3.6330   -0.1350    4.2367 N   0  3  0  0  0  0
    4.2943    0.5543    4.5637 H   0  0  0  0  0  0
    0.5346   -1.0991    4.6964 O   0  5  0  0  0  0
  1  2  1  0  0  0
  1  3  1  0  0  0
  1  7  1  0  0  0
  1 12  1  0  0  0
  2  4  1  0  0  0
  2  8  1  0  0  0
  2  9  1  0  0  0
  3  5  2  0  0  0
  3 14  1  0  0  0
  4  6  3  0  0  0
 10 12  1  0  0  0
 11 12  1  0  0  0
 12 13  1  0  0  0
M  CHG  2  12   1  14  -1
M  END
> <i_ionizer_Ion_state_n>
3

> <i_ionizer_Tot_Q>
0

> <s_ionizer_Ion_centers>
12_14

> <s_ionizer_Ion_types>
N5_OM

> <s_ionizer_Ion_ctrs_in>
4_6

> <r_ionizer_Ionization_penalty>
0.000779521

> <r_ionizer_Ionization_penalty_charging>
0.000779521

> <r_ionizer_Ionization_penalty_neutral>
0

> <s_st_Chirality_1>
1_S_12_3_2_7

> <i_mmod_Serial_Number-OPLS-2005>
495

> <i_i_glide_lignum>
490

> <r_i_docking_score>
-4.55811

> <r_i_glide_gscore>
-4.55811

> <r_i_glide_lipo>
-0.136381

> <r_i_glide_hbond>
-1.08515

> <r_i_glide_metal>
0

> <r_i_glide_eburp>
-2.5

> <r_i_glide_evdw>
-10.1059

> <r_i_glide_ecoul>
-7.25832

> <r_i_glide_erotb>
1.14612

> <r_i_glide_esite>
-0.44839

> <r_i_glide_emodel>
-36.0741

> <r_i_glide_energy>
-17.3642

> <r_i_glide_einternal>
0.965637

> <i_i_glide_confnum>
1

> <i_i_glide_posenum>
103

$$$$
C00073
                    3D
 Structure written by MMmdl.
 20 19  0  0  1  0            999 V2000
    2.6877    0.3617    4.0944 C   0  0  2  0  0  0
    1.3016    0.8165    3.6194 C   0  0  0  0  0  0
    3.5449   -0.1339    2.9084 C   0  0  0  0  0  0
    0.7558    0.1572    2.7060 O   0  0  0  0  0  0
    3.8029    0.9523    1.8548 C   0  0  0  0  0  0
    5.0253    0.4797    0.6036 S   0  0  0  0  0  0
    4.2784   -1.0623    0.0151 C   0  0  0  0  0  0
    3.1905    1.2016    4.5777 H   0  0  0  0  0  0
    4.4960   -0.5287    3.2696 H   0  0  0  0  0  0
    3.0416   -0.9681    2.4161 H   0  0  0  0  0  0
    1.9523   -0.3314    5.8653 H   0  0  0  0  0  0
    2.0016   -1.4655    4.6723 H   0  0  0  0  0  0
    2.8717    1.1995    1.3439 H   0  0  0  0  0  0
    4.1503    1.8662    2.3373 H   0  0  0  0  0  0
    4.8959   -1.5042   -0.7669 H   0  0  0  0  0  0
    4.1897   -1.7790    0.8317 H   0  0  0  0  0  0
    3.2856   -0.8739   -0.3935 H   0  0  0  0  0  0
    2.4999   -0.6979    5.1000 N   0  3  0  0  0  0
    3.3962   -1.0147    5.4393 H   0  0  0  0  0  0
    0.7973    1.8034    4.1975 O   0  5  0  0  0  0
  1  2  1  0  0  0
  1  3  1  0  0  0
  1  8  1  0  0  0
  1 18  1  0  0  0
  2  4  2  0  0  0
  2 20  1  0  0  0
  3  5  1  0  0  0
  3  9  1  0  0  0
  3 10  1  0  0  0
  5  6  1  0  0  0
  5 13  1  0  0  0
  5 14  1  0  0  0
  6  7  1  0  0  0
  7 15  1  0  0  0
  7 16  1  0  0  0
  7 17  1  0  0  0
 11 18  1  0  0  0
 12 18  1  0  0  0
 18 19  1  0  0  0
M  CHG  2  18   1  20  -1
M  END
> <i_ionizer_Ion_state_n>
3

> <i_ionizer_Tot_Q>
0

> <s_ionizer_Ion_centers>
18_20

> <s_ionizer_Ion_types>
N5_OM

> <s_ionizer_Ion_ctrs_in>
4_5

> <r_ionizer_Ionization_penalty>
0.000779521

> <r_ionizer_Ionization_penalty_charging>
0.000779521

> <r_ionizer_Ionization_penalty_neutral>
0

> <s_st_Chirality_1>
1_S_18_2_3_8

> <i_mmod_Serial_Number-OPLS-2005>
50

> <i_i_glide_lignum>
49

> <r_i_docking_score>
-4.54644

> <r_i_glide_gscore>
-4.54644

> <r_i_glide_lipo>
-0.298742

> <r_i_glide_hbond>
-0.967253

> <r_i_glide_metal>
0

> <r_i_glide_eburp>
-2.5

> <r_i_glide_evdw>
-13.5205

> <r_i_glide_ecoul>
-6.57106

> <r_i_glide_erotb>
1.50595

> <r_i_glide_esite>
-0.547649

> <r_i_glide_emodel>
-37.2548

> <r_i_glide_energy>
-20.0915

> <r_i_glide_einternal>
0.88879

> <i_i_glide_confnum>
1

> <i_i_glide_posenum>
218

$$$$
C05284
                    3D
 Structure written by MMmdl.
 48 51  0  0  1  0            999 V2000
    1.5663    3.1230    2.0846 C   0  0  2  0  0  0
    2.6460    2.0607    2.4966 C   0  0  2  0  0  0
    2.1490    4.5435    1.8181 C   0  0  2  0  0  0
    0.2455    3.1348    2.9296 C   0  0  2  0  0  0
    3.8106    2.1066    1.4917 C   0  0  0  0  0  0
    1.9737    0.6619    2.4873 C   0  0  0  0  0  0
    3.2462    2.3207    3.8948 C   0  0  0  0  0  0
    1.0151    5.4298    1.2751 C   0  0  1  0  0  0
    3.2907    4.4667    0.7924 C   0  0  0  0  0  0
   -0.7869    4.1873    2.4496 C   0  0  0  0  0  0
    0.4710    3.3332    4.3098 O   0  0  0  0  0  0
    4.3805    3.4884    1.2267 C   0  0  0  0  0  0
    4.3344    1.0225    0.8819 C   0  0  0  0  0  0
    2.9603   -0.5082    2.4021 C   0  0  0  0  0  0
   -0.1516    5.5779    2.2535 C   0  0  2  0  0  0
    1.3070    6.8528    0.7824 C   0  0  0  0  0  0
    3.8721   -0.3365    1.1920 C   0  0  0  0  0  0
   -0.9886    6.5811    1.4697 C   0  0  0  0  0  0
    0.2308    6.2526    3.5923 C   0  0  0  0  0  0
   -0.0946    7.4667    0.6046 C   0  0  0  0  0  0
    4.2120   -1.3223    0.5413 O   0  0  0  0  0  0
   -2.2133    6.6737    1.5281 O   0  0  0  0  0  0
    1.2324    2.7926    1.0998 H   0  0  0  0  0  0
    2.5393    4.9622    2.7450 H   0  0  0  0  0  0
    0.6332    4.9002    0.3991 H   0  0  0  0  0  0
   -0.2261    2.1561    2.8439 H   0  0  0  0  0  0
    1.3443    0.5432    3.3696 H   0  0  0  0  0  0
    1.3016    0.5929    1.6310 H   0  0  0  0  0  0
    4.1158    1.6861    4.0675 H   0  0  0  0  0  0
    3.5690    3.3552    4.0088 H   0  0  0  0  0  0
    2.5381    2.1013    4.6921 H   0  0  0  0  0  0
    2.8945    4.1546   -0.1745 H   0  0  0  0  0  0
    3.7281    5.4543    0.6454 H   0  0  0  0  0  0
   -1.2074    3.8542    1.4999 H   0  0  0  0  0  0
   -1.6243    4.2440    3.1459 H   0  0  0  0  0  0
    1.1793    3.9500    4.4142 H   0  0  0  0  0  0
    4.8616    3.8504    2.1354 H   0  0  0  0  0  0
    5.1559    3.4316    0.4623 H   0  0  0  0  0  0
    5.1492    1.1256    0.1802 H   0  0  0  0  0  0
    3.5733   -0.5578    3.3020 H   0  0  0  0  0  0
    2.4219   -1.4531    2.3244 H   0  0  0  0  0  0
    1.8785    7.4101    1.5253 H   0  0  0  0  0  0
    1.8722    6.8539   -0.1497 H   0  0  0  0  0  0
   -0.6052    6.2237    4.2915 H   0  0  0  0  0  0
    1.0759    5.7640    4.0741 H   0  0  0  0  0  0
    0.5058    7.2994    3.4581 H   0  0  0  0  0  0
   -0.1314    8.5080    0.9246 H   0  0  0  0  0  0
   -0.4241    7.4044   -0.4326 H   0  0  0  0  0  0
  1  2  1  0  0  0
  1  3  1  0  0  0
  1  4  1  0  0  0
  1 23  1  0  0  0
  2  5  1  0  0  0
  2  6  1  0  0  0
  2  7  1  0  0  0
  3  8  1  0  0  0
  3  9  1  0  0  0
  3 24  1  0  0  0
  4 10  1  0  0  0
  4 11  1  0  0  0
  4 26  1  0  0  0
  5 12  1  0  0  0
  5 13  2  0  0  0
  6 14  1  0  0  0
  6 27  1  0  0  0
  6 28  1  0  0  0
  7 29  1  0  0  0
  7 30  1  0  0  0
  7 31  1  0  0  0
  8 15  1  0  0  0
  8 16  1  0  0  0
  8 25  1  0  0  0
  9 12  1  0  0  0
  9 32  1  0  0  0
  9 33  1  0  0  0
 10 15  1  0  0  0
 10 34  1  0  0  0
 10 35  1  0  0  0
 11 36  1  0  0  0
 12 37  1  0  0  0
 12 38  1  0  0  0
 13 17  1  0  0  0
 13 39  1  0  0  0
 14 17  1  0  0  0
 14 40  1  0  0  0
 14 41  1  0  0  0
 15 18  1  0  0  0
 15 19  1  0  0  0
 16 20  1  0  0  0
 16 42  1  0  0  0
 16 43  1  0  0  0
 17 21  2  0  0  0
 18 22  2  0  0  0
 18 20  1  0  0  0
 19 44  1  0  0  0
 19 45  1  0  0  0
 19 46  1  0  0  0
 20 47  1  0  0  0
 20 48  1  0  0  0
M  END
> <i_ionizer_Ion_state_n>
0

> <i_ionizer_Tot_Q>
0

> <s_ionizer_Ion_centers>


> <s_ionizer_Ion_types>


> <s_ionizer_Ion_ctrs_in>


> <r_ionizer_Ionization_penalty>
0

> <r_ionizer_Ionization_penalty_charging>
0

> <r_ionizer_Ionization_penalty_neutral>
0

> <s_st_Chirality_1>
1_S_4_2_3_23

> <s_st_Chirality_2>
2_R_5_1_6_7

> <s_st_Chirality_3>
3_S_1_8_9_24

> <s_st_Chirality_4>
4_S_11_1_10_26

> <s_st_Chirality_5>
8_S_15_3_16_25

> <s_st_Chirality_6>
15_S_18_8_10_19

> <s_st_EZ_1>
2_5_13_17_Z

> <i_mmod_Serial_Number-OPLS-2005>
664

> <i_i_glide_lignum>
657

> <r_i_docking_score>
-4.54389

> <r_i_glide_gscore>
-4.54389

> <r_i_glide_lipo>
-1.52668

> <r_i_glide_hbond>
-0.5

> <r_i_glide_metal>
0

> <r_i_glide_eburp>
-1.49684

> <r_i_glide_evdw>
-3.77716

> <r_i_glide_ecoul>
-1.50196

> <r_i_glide_erotb>
0

> <r_i_glide_esite>
-0.568007

> <r_i_glide_emodel>
-10.0484

> <r_i_glide_energy>
-5.27912

> <r_i_glide_einternal>
0.595435

> <i_i_glide_confnum>
1

> <i_i_glide_posenum>
538

$$$$
C00341
                    3D
 Structure written by MMmdl.
 36 35  0  0  1  0            999 V2000
    0.3201    2.2974    3.0614 O   0  0  0  0  0  0
    0.1668    3.9883    2.9707 P   0  0  0  0  0  0
    1.4115    1.7032    3.7304 C   0  0  0  0  0  0
    1.3750    4.4357    1.8595 O   0  0  0  0  0  0
   -1.1515    4.2942    2.3669 O   0  0  0  0  0  0
    2.3453    1.0402    2.7351 C   0  0  0  0  0  0
    3.1287    4.4781    1.5171 P   0  0  0  0  0  0
    2.3566   -0.2485    2.3345 C   0  0  0  0  0  0
    3.3501    3.1733    0.7191 O   0  0  0  0  0  0
    3.3895   -0.7409    1.3315 C   0  0  0  0  0  0
    1.3842   -1.3144    2.8192 C   0  0  0  0  0  0
    4.6978    0.0638    1.3730 C   0  0  0  0  0  0
    5.5882   -0.2484    0.1828 C   0  0  0  0  0  0
    6.8977   -0.5720    0.1938 C   0  0  0  0  0  0
    7.6517   -0.8267   -1.0971 C   0  0  0  0  0  0
    7.7488   -0.7110    1.4454 C   0  0  0  0  0  0
    1.9663    2.4791    4.2582 H   0  0  0  0  0  0
    1.0389    1.0176    4.4881 H   0  0  0  0  0  0
    3.0805    1.7121    2.3173 H   0  0  0  0  0  0
    3.5919   -1.7944    1.5287 H   0  0  0  0  0  0
    2.9704   -0.6967    0.3252 H   0  0  0  0  0  0
    1.8846   -2.0091    3.4932 H   0  0  0  0  0  0
    0.5196   -0.9093    3.3392 H   0  0  0  0  0  0
    1.0013   -1.8815    1.9707 H   0  0  0  0  0  0
    4.4725    1.1303    1.3448 H   0  0  0  0  0  0
    5.2210   -0.1006    2.3121 H   0  0  0  0  0  0
    5.0827   -0.1971   -0.7708 H   0  0  0  0  0  0
    8.0505   -1.8413   -1.1085 H   0  0  0  0  0  0
    7.0096   -0.7065   -1.9703 H   0  0  0  0  0  0
    8.4846   -0.1296   -1.1914 H   0  0  0  0  0  0
    8.4769    0.0988    1.4944 H   0  0  0  0  0  0
    7.1714   -0.7064    2.3673 H   0  0  0  0  0  0
    8.2955   -1.6538    1.4180 H   0  0  0  0  0  0
    0.5004    4.5474    4.3005 O   0  5  0  0  0  0
    3.2794    5.7926    0.7182 O   0  5  0  0  0  0
    3.7286    4.4960    2.9420 O   0  5  0  0  0  0
  1  2  1  0  0  0
  1  3  1  0  0  0
  2  4  1  0  0  0
  2  5  2  0  0  0
  2 34  1  0  0  0
  3  6  1  0  0  0
  3 17  1  0  0  0
  3 18  1  0  0  0
  4  7  1  0  0  0
  6  8  2  0  0  0
  6 19  1  0  0  0
  7  9  2  0  0  0
  7 35  1  0  0  0
  7 36  1  0  0  0
  8 10  1  0  0  0
  8 11  1  0  0  0
 10 12  1  0  0  0
 10 20  1  0  0  0
 10 21  1  0  0  0
 11 22  1  0  0  0
 11 23  1  0  0  0
 11 24  1  0  0  0
 12 13  1  0  0  0
 12 25  1  0  0  0
 12 26  1  0  0  0
 13 14  2  0  0  0
 13 27  1  0  0  0
 14 15  1  0  0  0
 14 16  1  0  0  0
 15 28  1  0  0  0
 15 29  1  0  0  0
 15 30  1  0  0  0
 16 31  1  0  0  0
 16 32  1  0  0  0
 16 33  1  0  0  0
M  CHG  3  34  -1  35  -1  36  -1
M  END
> <i_ionizer_Ion_state_n>
7

> <i_ionizer_Tot_Q>
-3

> <s_ionizer_Ion_centers>
34_35_36

> <s_ionizer_Ion_types>
OM_OM_OM

> <s_ionizer_Ion_ctrs_in>
5_10_11

> <r_ionizer_Ionization_penalty>
2.23767e-05

> <r_ionizer_Ionization_penalty_charging>
2.23767e-05

> <r_ionizer_Ionization_penalty_neutral>
0

> <s_st_EZ_1>
3_6_8_10_E

> <i_mmod_Serial_Number-OPLS-2005>
199

> <i_i_glide_lignum>
197

> <r_i_docking_score>
-4.54215

> <r_i_glide_gscore>
-4.54215

> <r_i_glide_lipo>
-0.984612

> <r_i_glide_hbond>
-0.858339

> <r_i_glide_metal>
0

> <r_i_glide_eburp>
-1.43038

> <r_i_glide_evdw>
-21.7654

> <r_i_glide_ecoul>
-1.31177

> <r_i_glide_erotb>
1.53175

> <r_i_glide_esite>
-0.928159

> <r_i_glide_emodel>
-50.3891

> <r_i_glide_energy>
-23.0771

> <r_i_glide_einternal>
6.28

> <i_i_glide_confnum>
4

> <i_i_glide_posenum>
467

$$$$
C00021
                    3D
 Structure written by MMmdl.
 46 48  0  0  1  0            999 V2000
    4.0912    0.8959    0.6101 N   0  0  0  0  0  0
    4.9886   -0.0148    0.0989 C   0  0  0  0  0  0
    2.6706    0.6047    0.9735 C   0  0  2  0  0  0
    4.7931    2.0808    0.6941 C   0  0  0  0  0  0
    6.2028    0.6993   -0.0887 C   0  0  0  0  0  0
    4.7836   -1.3359   -0.1752 N   0  0  0  0  0  0
    2.0274    1.8270    1.1973 O   0  0  0  0  0  0
    2.6343   -0.1816    2.2885 C   0  0  1  0  0  0
    6.0378    2.0222    0.3004 N   0  0  0  0  0  0
    7.2841   -0.0539   -0.6110 C   0  0  0  0  0  0
    5.8878   -1.9121   -0.6593 C   0  0  0  0  0  0
    1.6177    1.9517    2.5590 C   0  0  1  0  0  0
    2.4803    0.9334    3.3109 C   0  0  1  0  0  0
    1.5511   -1.0922    2.3064 O   0  0  0  0  0  0
    7.0871   -1.3646   -0.8853 N   0  0  0  0  0  0
    8.4943    0.4697   -0.8463 N   0  0  0  0  0  0
    1.7900    3.4113    3.0098 C   0  0  0  0  0  0
    1.9002    0.4690    4.5165 O   0  0  0  0  0  0
    0.2167    4.1814    3.4835 S   0  0  0  0  0  0
   -0.0833    5.1876    2.0064 C   0  0  0  0  0  0
   -0.5696    6.5986    2.3780 C   0  0  0  0  0  0
   -0.1070    7.7036    1.4010 C   0  0  1  0  0  0
    0.6175    7.1236    0.1775 C   0  0  0  0  0  0
   -0.0624    6.8995   -0.8492 O   0  0  0  0  0  0
    2.2682    0.0725    0.1101 H   0  0  0  0  0  0
    4.3552    2.9985    1.0578 H   0  0  0  0  0  0
    3.5547   -0.7479    2.4386 H   0  0  0  0  0  0
    5.8003   -2.9614   -0.9002 H   0  0  0  0  0  0
    0.5670    1.6601    2.6073 H   0  0  0  0  0  0
    3.4598    1.3642    3.5246 H   0  0  0  0  0  0
    1.4375   -1.3837    3.1992 H   0  0  0  0  0  0
    9.2297   -0.1124   -1.2195 H   0  0  0  0  0  0
    8.6638    1.4457   -0.6501 H   0  0  0  0  0  0
    2.4846    3.4744    3.8475 H   0  0  0  0  0  0
    2.2211    3.9955    2.1964 H   0  0  0  0  0  0
    2.4790   -0.1753    4.8968 H   0  0  0  0  0  0
    0.8400    5.2464    1.4294 H   0  0  0  0  0  0
   -0.8191    4.6755    1.3856 H   0  0  0  0  0  0
   -1.6583    6.5951    2.4553 H   0  0  0  0  0  0
   -0.2018    6.8388    3.3764 H   0  0  0  0  0  0
    0.5572    8.3901    1.9292 H   0  0  0  0  0  0
   -0.9225    9.2225    0.3121 H   0  0  0  0  0  0
   -1.8712    7.8796    0.4014 H   0  0  0  0  0  0
   -1.2563    8.4895    0.9212 N   0  3  0  0  0  0
   -1.7500    8.8915    1.7046 H   0  0  0  0  0  0
    1.8466    6.9247    0.2873 O   0  5  0  0  0  0
  1  2  1  0  0  0
  1  3  1  0  0  0
  1  4  1  0  0  0
  2  5  2  0  0  0
  2  6  1  0  0  0
  3  7  1  0  0  0
  3  8  1  0  0  0
  3 25  1  0  0  0
  4  9  2  0  0  0
  4 26  1  0  0  0
  5 10  1  0  0  0
  5  9  1  0  0  0
  6 11  2  0  0  0
  7 12  1  0  0  0
  8 13  1  0  0  0
  8 14  1  0  0  0
  8 27  1  0  0  0
 10 15  2  0  0  0
 10 16  1  0  0  0
 11 15  1  0  0  0
 11 28  1  0  0  0
 12 17  1  0  0  0
 12 13  1  0  0  0
 12 29  1  0  0  0
 13 18  1  0  0  0
 13 30  1  0  0  0
 14 31  1  0  0  0
 16 32  1  0  0  0
 16 33  1  0  0  0
 17 19  1  0  0  0
 17 34  1  0  0  0
 17 35  1  0  0  0
 18 36  1  0  0  0
 19 20  1  0  0  0
 20 21  1  0  0  0
 20 37  1  0  0  0
 20 38  1  0  0  0
 21 22  1  0  0  0
 21 39  1  0  0  0
 21 40  1  0  0  0
 22 23  1  0  0  0
 22 41  1  0  0  0
 22 44  1  0  0  0
 23 24  2  0  0  0
 23 46  1  0  0  0
 42 44  1  0  0  0
 43 44  1  0  0  0
 44 45  1  0  0  0
M  CHG  2  44   1  46  -1
M  END
> <i_ionizer_Ion_state_n>
6

> <i_ionizer_Tot_Q>
0

> <s_ionizer_Ion_centers>
44_46

> <s_ionizer_Ion_types>
N5_OM

> <s_ionizer_Ion_ctrs_in>
24_25

> <r_ionizer_Ionization_penalty>
0.000798256

> <r_ionizer_Ionization_penalty_charging>
0.000779521

> <r_ionizer_Ionization_penalty_neutral>
1.87357e-05

> <s_st_Chirality_1>
3_R_7_1_8_25

> <s_st_Chirality_2>
8_R_14_3_13_27

> <s_st_Chirality_3>
12_S_7_17_13_29

> <s_st_Chirality_4>
13_S_18_12_8_30

> <s_st_Chirality_5>
22_S_44_23_21_41

> <i_mmod_Serial_Number-OPLS-2005>
17

> <i_i_glide_lignum>
17

> <r_i_docking_score>
-4.53961

> <r_i_glide_gscore>
-4.53961

> <r_i_glide_lipo>
-0.797143

> <r_i_glide_hbond>
-0.193278

> <r_i_glide_metal>
0

> <r_i_glide_eburp>
-0.875631

> <r_i_glide_evdw>
-27.4124

> <r_i_glide_ecoul>
-10.4665

> <r_i_glide_erotb>
0.902169

> <r_i_glide_esite>
-0.336081

> <r_i_glide_emodel>
-72.3122

> <r_i_glide_energy>
-37.879

> <r_i_glide_einternal>
17.0317

> <i_i_glide_confnum>
165

> <i_i_glide_posenum>
976

$$$$
C06608
                    3D
 Structure written by MMmdl.
 19 18  0  0  1  0            999 V2000
    0.9027    2.3561    3.3675 P   0  0  0  0  0  0
    0.0996    1.2394    2.3600 O   0  0  0  0  0  0
    1.9090    3.1952    2.2772 O   0  0  0  0  0  0
   -0.1015    3.3043    3.9005 O   0  0  0  0  0  0
    0.7243    0.0659    1.8673 C   0  0  0  0  0  0
    2.7212    4.2844    2.6786 C   0  0  0  0  0  0
    1.5805   -0.6372    2.9287 C   0  0  0  0  0  0
    3.4216    4.9564    1.4907 C   0  0  0  0  0  0
   -0.0557   -0.6096    1.5162 H   0  0  0  0  0  0
    1.3337    0.3217    1.0000 H   0  0  0  0  0  0
    2.1089    5.0094    3.2157 H   0  0  0  0  0  0
    3.4639    3.9123    3.3843 H   0  0  0  0  0  0
    1.9730   -1.5792    2.5457 H   0  0  0  0  0  0
    2.4328   -0.0264    3.2262 H   0  0  0  0  0  0
    0.9942   -0.8571    3.8210 H   0  0  0  0  0  0
    4.0987    5.7388    1.8333 H   0  0  0  0  0  0
    4.0061    4.2327    0.9223 H   0  0  0  0  0  0
    2.7050    5.4183    0.8116 H   0  0  0  0  0  0
    1.7634    1.5950    4.3000 O   0  5  0  0  0  0
  1  2  1  0  0  0
  1  3  1  0  0  0
  1  4  2  0  0  0
  1 19  1  0  0  0
  2  5  1  0  0  0
  3  6  1  0  0  0
  5  7  1  0  0  0
  5  9  1  0  0  0
  5 10  1  0  0  0
  6  8  1  0  0  0
  6 11  1  0  0  0
  6 12  1  0  0  0
  7 13  1  0  0  0
  7 14  1  0  0  0
  7 15  1  0  0  0
  8 16  1  0  0  0
  8 17  1  0  0  0
  8 18  1  0  0  0
M  CHG  1  19  -1
M  END
> <i_ionizer_Ion_state_n>
1

> <i_ionizer_Tot_Q>
-1

> <s_ionizer_Ion_centers>
19

> <s_ionizer_Ion_types>
OM

> <s_ionizer_Ion_ctrs_in>
4

> <r_ionizer_Ionization_penalty>
7.45891e-06

> <r_ionizer_Ionization_penalty_charging>
7.45891e-06

> <r_ionizer_Ionization_penalty_neutral>
0

> <i_mmod_Serial_Number-OPLS-2005>
878

> <i_i_glide_lignum>
866

> <r_i_docking_score>
-4.53925

> <r_i_glide_gscore>
-4.53925

> <r_i_glide_lipo>
-0.409044

> <r_i_glide_hbond>
-0.7

> <r_i_glide_metal>
0

> <r_i_glide_eburp>
-2.5

> <r_i_glide_evdw>
-16.2529

> <r_i_glide_ecoul>
-4.49543

> <r_i_glide_erotb>
1.44524

> <r_i_glide_esite>
-0.625676

> <r_i_glide_emodel>
-36.4893

> <r_i_glide_energy>
-20.7483

> <r_i_glide_einternal>
2.76687

> <i_i_glide_confnum>
3

> <i_i_glide_posenum>
455

$$$$
C02140
                    3D
 Structure written by MMmdl.
 55 58  0  0  1  0            999 V2000
    1.4546    3.1076    2.0785 C   0  0  1  0  0  0
    2.0690    4.5081    1.7872 C   0  0  2  0  0  0
    2.5090    2.0246    2.5026 C   0  0  2  0  0  0
    0.1428    3.1690    2.9312 C   0  0  2  0  0  0
    0.9621    5.4225    1.2308 C   0  0  1  0  0  0
    3.2071    4.3872    0.7611 C   0  0  0  0  0  0
    3.6707    2.0262    1.4936 C   0  0  0  0  0  0
    1.8016    0.6433    2.5164 C   0  0  0  0  0  0
    3.1210    2.2899    3.8948 C   0  0  0  0  0  0
   -0.8615    4.2371    2.4314 C   0  0  0  0  0  0
    0.3748    3.3778    4.3086 O   0  0  0  0  0  0
   -0.2136    5.6177    2.1892 C   0  0  2  0  0  0
    1.3145    6.8400    0.7739 C   0  0  0  0  0  0
    4.2738    3.3892    1.2070 C   0  0  0  0  0  0
    4.1648    0.9204    0.8981 C   0  0  0  0  0  0
    2.7580   -0.5526    2.4452 C   0  0  0  0  0  0
   -1.0705    6.5820    1.3367 C   0  0  2  0  0  0
    0.2112    6.2896    3.5231 C   0  0  0  0  0  0
   -0.0510    7.5459    0.6810 C   0  0  0  0  0  0
    3.6694   -0.4217    1.2298 C   0  0  0  0  0  0
   -2.2646    7.2314    2.0591 C   0  0  0  0  0  0
    3.9821   -1.4252    0.5926 O   0  0  0  0  0  0
   -2.0235    8.4949    2.8969 C   0  0  0  0  0  0
   -3.3833    6.7264    1.9629 O   0  0  0  0  0  0
   -3.2172    8.9528    3.5019 O   0  0  0  0  0  0
    1.1061    2.7710    1.1009 H   0  0  0  0  0  0
    2.4722    4.9298    2.7072 H   0  0  0  0  0  0
    0.5719    4.9176    0.3449 H   0  0  0  0  0  0
   -0.3551    2.2021    2.8613 H   0  0  0  0  0  0
    2.8010    4.0708   -0.2003 H   0  0  0  0  0  0
    3.6684    5.3613    0.5981 H   0  0  0  0  0  0
    1.1248    0.5787    1.6635 H   0  0  0  0  0  0
    1.1727    0.5536    3.4025 H   0  0  0  0  0  0
    3.9758    1.6371    4.0733 H   0  0  0  0  0  0
    3.4688    3.3180    3.9928 H   0  0  0  0  0  0
    2.4111    2.0988    4.6978 H   0  0  0  0  0  0
   -1.2842    3.8853    1.4897 H   0  0  0  0  0  0
   -1.7019    4.3245    3.1207 H   0  0  0  0  0  0
    1.0494    2.7809    4.5945 H   0  0  0  0  0  0
    1.9461    7.3328    1.5134 H   0  0  0  0  0  0
    1.8450    6.8456   -0.1784 H   0  0  0  0  0  0
    5.0453    3.3021    0.4416 H   0  0  0  0  0  0
    4.7662    3.7526    2.1091 H   0  0  0  0  0  0
    4.9795    0.9927    0.1925 H   0  0  0  0  0  0
    3.3729   -0.6044    3.3438 H   0  0  0  0  0  0
    2.1957   -1.4845    2.3833 H   0  0  0  0  0  0
   -1.5027    5.9945    0.5254 H   0  0  0  0  0  0
   -0.6306    6.3599    4.2122 H   0  0  0  0  0  0
    1.0000    5.7400    4.0328 H   0  0  0  0  0  0
    0.5894    7.2991    3.3651 H   0  0  0  0  0  0
    0.0037    8.5151    1.1748 H   0  0  0  0  0  0
   -0.3216    7.7243   -0.3599 H   0  0  0  0  0  0
   -1.2853    8.2926    3.6721 H   0  0  0  0  0  0
   -1.6267    9.2823    2.2561 H   0  0  0  0  0  0
   -3.6707    9.5133    2.8911 H   0  0  0  0  0  0
  1  2  1  0  0  0
  1  3  1  0  0  0
  1  4  1  0  0  0
  1 26  1  0  0  0
  2  5  1  0  0  0
  2  6  1  0  0  0
  2 27  1  0  0  0
  3  7  1  0  0  0
  3  8  1  0  0  0
  3  9  1  0  0  0
  4 10  1  0  0  0
  4 11  1  0  0  0
  4 29  1  0  0  0
  5 12  1  0  0  0
  5 13  1  0  0  0
  5 28  1  0  0  0
  6 14  1  0  0  0
  6 30  1  0  0  0
  6 31  1  0  0  0
  7 15  2  0  0  0
  7 14  1  0  0  0
  8 16  1  0  0  0
  8 32  1  0  0  0
  8 33  1  0  0  0
  9 34  1  0  0  0
  9 35  1  0  0  0
  9 36  1  0  0  0
 10 12  1  0  0  0
 10 37  1  0  0  0
 10 38  1  0  0  0
 11 39  1  0  0  0
 12 17  1  0  0  0
 12 18  1  0  0  0
 13 19  1  0  0  0
 13 40  1  0  0  0
 13 41  1  0  0  0
 14 42  1  0  0  0
 14 43  1  0  0  0
 15 20  1  0  0  0
 15 44  1  0  0  0
 16 20  1  0  0  0
 16 45  1  0  0  0
 16 46  1  0  0  0
 17 21  1  0  0  0
 17 19  1  0  0  0
 17 47  1  0  0  0
 18 48  1  0  0  0
 18 49  1  0  0  0
 18 50  1  0  0  0
 19 51  1  0  0  0
 19 52  1  0  0  0
 20 22  2  0  0  0
 21 23  1  0  0  0
 21 24  2  0  0  0
 23 25  1  0  0  0
 23 53  1  0  0  0
 23 54  1  0  0  0
 25 55  1  0  0  0
M  END
> <i_ionizer_Ion_state_n>
0

> <i_ionizer_Tot_Q>
0

> <s_ionizer_Ion_centers>


> <s_ionizer_Ion_types>


> <s_ionizer_Ion_ctrs_in>


> <r_ionizer_Ionization_penalty>
0

> <r_ionizer_Ionization_penalty_charging>
0

> <r_ionizer_Ionization_penalty_neutral>
0

> <s_st_Chirality_1>
1_S_4_3_2_26

> <s_st_Chirality_2>
2_S_1_5_6_27

> <s_st_Chirality_3>
3_R_7_1_8_9

> <s_st_Chirality_4>
4_S_11_1_10_29

> <s_st_Chirality_5>
5_S_12_2_13_28

> <s_st_Chirality_6>
12_R_5_17_10_18

> <s_st_Chirality_7>
17_S_21_12_19_47

> <s_st_EZ_1>
3_7_15_20_Z

> <i_mmod_Serial_Number-OPLS-2005>
473

> <i_i_glide_lignum>
468

> <r_i_docking_score>
-4.53377

> <r_i_glide_gscore>
-4.53377

> <r_i_glide_lipo>
-1.67426

> <r_i_glide_hbond>
-1

> <r_i_glide_metal>
0

> <r_i_glide_eburp>
-1.1631

> <r_i_glide_evdw>
-0.392341

> <r_i_glide_ecoul>
-8.03768

> <r_i_glide_erotb>
0.362016

> <r_i_glide_esite>
-0.223271

> <r_i_glide_emodel>
-20.6586

> <r_i_glide_energy>
-8.43002

> <r_i_glide_einternal>
6.04128

> <i_i_glide_confnum>
6

> <i_i_glide_posenum>
478

$$$$
C00603
                    3D
 Structure written by MMmdl.
 14 13  0  0  1  0            999 V2000
    1.1985    2.2225    2.7734 C   0  0  2  0  0  0
    2.3066    1.6226    3.5096 N   0  0  0  0  0  0
    0.8429    3.5736    3.4000 C   0  0  0  0  0  0
    0.1224    1.3265    2.6472 O   0  0  0  0  0  0
    2.2812    0.4351    4.1296 C   0  0  0  0  0  0
   -0.2998    3.6983    3.8932 O   0  0  0  0  0  0
    3.4674    0.1009    4.6371 N   0  0  0  0  0  0
    1.2902   -0.2846    4.2317 O   0  0  0  0  0  0
    1.5364    2.4619    1.7636 H   0  0  0  0  0  0
    3.1695    2.1442    3.5042 H   0  0  0  0  0  0
    0.4542    0.5723    2.1797 H   0  0  0  0  0  0
    3.5604   -0.7773    5.1254 H   0  0  0  0  0  0
    4.2619    0.7134    4.5331 H   0  0  0  0  0  0
    1.7226    4.4633    3.3691 O   0  5  0  0  0  0
  1  2  1  0  0  0
  1  3  1  0  0  0
  1  4  1  0  0  0
  1  9  1  0  0  0
  2  5  1  0  0  0
  2 10  1  0  0  0
  3  6  2  0  0  0
  3 14  1  0  0  0
  4 11  1  0  0  0
  5  7  1  0  0  0
  5  8  2  0  0  0
  7 12  1  0  0  0
  7 13  1  0  0  0
M  CHG  1  14  -1
M  END
> <i_ionizer_Ion_state_n>
1

> <i_ionizer_Tot_Q>
-1

> <s_ionizer_Ion_centers>
14

> <s_ionizer_Ion_types>
OM

> <s_ionizer_Ion_ctrs_in>
6

> <r_ionizer_Ionization_penalty>
0.00059219

> <r_ionizer_Ionization_penalty_charging>
0.00059219

> <r_ionizer_Ionization_penalty_neutral>
0

> <s_st_Chirality_1>
1_S_4_2_3_9

> <i_mmod_Serial_Number-OPLS-2005>
292

> <i_i_glide_lignum>
290

> <r_i_docking_score>
-4.49808

> <r_i_glide_gscore>
-4.49808

> <r_i_glide_lipo>
0

> <r_i_glide_hbond>
-1.13201

> <r_i_glide_metal>
0

> <r_i_glide_eburp>
-2.5

> <r_i_glide_evdw>
-13.6189

> <r_i_glide_ecoul>
-8.56856

> <r_i_glide_erotb>
0.902648

> <r_i_glide_esite>
0.177651

> <r_i_glide_emodel>
-44.092

> <r_i_glide_energy>
-22.1874

> <r_i_glide_einternal>
1.8555

> <i_i_glide_confnum>
2

> <i_i_glide_posenum>
134

$$$$
C00005
                    3D
 Structure written by MMmdl.
 74 78  0  0  1  0            999 V2000
   -1.1040   14.2733    3.0847 C   0  0  1  0  0  0
   -2.0511   15.0430    2.2215 N   0  0  0  0  0  0
   -1.1513   14.6885    4.5444 C   0  0  1  0  0  0
   -1.5032   12.9420    3.1020 O   0  0  0  0  0  0
   -1.7093   15.7277    1.0765 C   0  0  0  0  0  0
   -3.4014   15.2778    2.3868 C   0  0  0  0  0  0
   -0.5278   13.4696    5.2076 C   0  0  1  0  0  0
   -0.4855   15.9190    4.7804 O   0  0  0  0  0  0
   -0.9743   12.3194    4.2758 C   0  0  1  0  0  0
   -2.9114   16.3213    0.6049 C   0  0  0  0  0  0
   -0.4807   15.8341    0.4899 N   0  0  0  0  0  0
   -3.9600   16.0114    1.4600 N   0  0  0  0  0  0
    0.8874   13.5109    5.1746 O   0  0  0  0  0  0
   -1.5262   17.2511    5.3683 P   0  0  0  0  0  0
   -2.0651   11.4225    4.8834 C   0  0  0  0  0  0
   -2.7972   17.0793   -0.5873 C   0  0  0  0  0  0
   -0.5289   16.5758   -0.6202 C   0  0  0  0  0  0
   -0.5093   18.4060    5.5099 O   0  0  0  0  0  0
   -2.2541   10.1864    4.2074 O   0  0  0  0  0  0
   -1.5827   17.1842   -1.1754 N   0  0  0  0  0  0
   -3.8362   17.7009   -1.1604 N   0  0  0  0  0  0
   -2.7208    8.7388    4.9881 P   0  0  0  0  0  0
   -2.9044    7.6290    3.7095 O   0  0  0  0  0  0
   -1.6051    8.2808    5.8492 O   0  0  0  0  0  0
   -1.9342    7.0456    2.4364 P   0  0  0  0  0  0
   -1.0842    5.7324    3.1180 O   0  0  0  0  0  0
   -2.8385    6.4965    1.4002 O   0  0  0  0  0  0
   -0.3174    4.8391    2.3317 C   0  0  0  0  0  0
    1.1583    5.2632    2.2848 C   0  0  1  0  0  0
    1.8610    4.7528    3.4100 O   0  0  0  0  0  0
    1.9140    4.6603    1.0983 C   0  0  2  0  0  0
    3.2072    4.5779    3.1003 C   0  0  2  0  0  0
    3.3662    4.6421    1.5720 C   0  0  2  0  0  0
    1.7248    5.3886   -0.1015 O   0  0  0  0  0  0
    3.6274    3.2439    3.6444 N   0  0  0  0  0  0
    4.0791    5.8034    1.1828 O   0  0  0  0  0  0
    3.0890    2.0705    3.1391 C   0  0  0  0  0  0
    4.6323    3.1449    4.5913 C   0  0  0  0  0  0
    3.4575    0.8318    3.5444 C   0  0  0  0  0  0
    5.0786    1.9704    5.0676 C   0  0  0  0  0  0
    4.5342    0.6348    4.6115 C   0  0  0  0  0  0
    2.7957   -0.3238    2.9332 C   0  0  0  0  0  0
    3.2876   -1.4999    3.3338 N   0  0  0  0  0  0
    1.8689   -0.2770    2.1255 O   0  0  0  0  0  0
   -0.1214   14.3927    2.6253 H   0  0  0  0  0  0
   -2.1980   14.7485    4.8474 H   0  0  0  0  0  0
   -3.9674   14.8895    3.2208 H   0  0  0  0  0  0
   -0.8598   13.3384    6.2379 H   0  0  0  0  0  0
   -0.1301   11.7079    3.9556 H   0  0  0  0  0  0
    1.1883   13.5376    6.0745 H   0  0  0  0  0  0
   -1.8208   11.1986    5.9219 H   0  0  0  0  0  0
   -3.0141   11.9587    4.8982 H   0  0  0  0  0  0
    0.4102   16.6997   -1.1391 H   0  0  0  0  0  0
   -3.7007   18.2285   -2.0099 H   0  0  0  0  0  0
   -4.7506   17.6360   -0.7366 H   0  0  0  0  0  0
   -0.4090    3.8178    2.7021 H   0  0  0  0  0  0
   -0.7380    4.8485    1.3262 H   0  0  0  0  0  0
    1.2522    6.3505    2.2746 H   0  0  0  0  0  0
    1.5822    3.6340    0.9372 H   0  0  0  0  0  0
    3.8077    5.3198    3.6286 H   0  0  0  0  0  0
    3.9005    3.7691    1.1944 H   0  0  0  0  0  0
    2.2673    5.0024   -0.7716 H   0  0  0  0  0  0
    4.9959    5.6703    1.3686 H   0  0  0  0  0  0
    2.3245    2.1704    2.3813 H   0  0  0  0  0  0
    5.0876    4.0506    4.9627 H   0  0  0  0  0  0
    5.8687    1.9531    5.8040 H   0  0  0  0  0  0
    4.1218    0.1082    5.4729 H   0  0  0  0  0  0
    5.3582    0.0435    4.2104 H   0  0  0  0  0  0
    2.8959   -2.3545    2.9668 H   0  0  0  0  0  0
    4.0494   -1.5268    3.9954 H   0  0  0  0  0  0
   -2.5615   17.3995    4.2323 O   0  5  0  0  0  0
   -2.0580   16.6633    6.6938 O   0  5  0  0  0  0
   -4.0476    8.9735    5.6008 O   0  5  0  0  0  0
   -0.9691    8.1030    2.0607 O   0  5  0  0  0  0
  1  2  1  0  0  0
  1  3  1  0  0  0
  1  4  1  0  0  0
  1 45  1  0  0  0
  2  5  1  0  0  0
  2  6  1  0  0  0
  3  7  1  0  0  0
  3  8  1  0  0  0
  3 46  1  0  0  0
  4  9  1  0  0  0
  5 10  2  0  0  0
  5 11  1  0  0  0
  6 12  2  0  0  0
  6 47  1  0  0  0
  7 13  1  0  0  0
  7  9  1  0  0  0
  7 48  1  0  0  0
  8 14  1  0  0  0
  9 15  1  0  0  0
  9 49  1  0  0  0
 10 16  1  0  0  0
 10 12  1  0  0  0
 11 17  2  0  0  0
 13 50  1  0  0  0
 14 18  2  0  0  0
 14 71  1  0  0  0
 14 72  1  0  0  0
 15 19  1  0  0  0
 15 51  1  0  0  0
 15 52  1  0  0  0
 16 20  2  0  0  0
 16 21  1  0  0  0
 17 20  1  0  0  0
 17 53  1  0  0  0
 19 22  1  0  0  0
 21 54  1  0  0  0
 21 55  1  0  0  0
 22 23  1  0  0  0
 22 24  2  0  0  0
 22 73  1  0  0  0
 23 25  1  0  0  0
 25 26  1  0  0  0
 25 27  2  0  0  0
 25 74  1  0  0  0
 26 28  1  0  0  0
 28 29  1  0  0  0
 28 56  1  0  0  0
 28 57  1  0  0  0
 29 30  1  0  0  0
 29 31  1  0  0  0
 29 58  1  0  0  0
 30 32  1  0  0  0
 31 33  1  0  0  0
 31 34  1  0  0  0
 31 59  1  0  0  0
 32 35  1  0  0  0
 32 33  1  0  0  0
 32 60  1  0  0  0
 33 36  1  0  0  0
 33 61  1  0  0  0
 34 62  1  0  0  0
 35 37  1  0  0  0
 35 38  1  0  0  0
 36 63  1  0  0  0
 37 39  2  0  0  0
 37 64  1  0  0  0
 38 40  2  0  0  0
 38 65  1  0  0  0
 39 41  1  0  0  0
 39 42  1  0  0  0
 40 41  1  0  0  0
 40 66  1  0  0  0
 41 67  1  0  0  0
 41 68  1  0  0  0
 42 43  1  0  0  0
 42 44  2  0  0  0
 43 69  1  0  0  0
 43 70  1  0  0  0
M  CHG  4  71  -1  72  -1  73  -1  74  -1
M  END
> <i_ionizer_Ion_state_n>
30

> <i_ionizer_Tot_Q>
-4

> <s_ionizer_Ion_centers>
71_72_73_74

> <s_ionizer_Ion_types>
OM_OM_OM_OM

> <s_ionizer_Ion_ctrs_in>
18_19_26_30

> <r_ionizer_Ionization_penalty>
4.85714e-05

> <r_ionizer_Ionization_penalty_charging>
2.98356e-05

> <r_ionizer_Ionization_penalty_neutral>
1.87357e-05

> <s_st_Chirality_1>
1_R_4_2_3_45

> <s_st_Chirality_2>
3_R_8_1_7_46

> <s_st_Chirality_3>
7_R_13_3_9_48

> <s_st_Chirality_4>
9_R_4_7_15_49

> <s_st_Chirality_5>
29_R_30_31_28_58

> <s_st_Chirality_6>
31_R_34_33_29_59

> <s_st_Chirality_7>
32_R_30_35_33_60

> <s_st_Chirality_8>
33_R_36_32_31_61

> <s_st_EZ_1>
35_37_39_42_E

> <s_st_EZ_2>
35_38_40_41_Z

> <i_mmod_Serial_Number-OPLS-2005>
5

> <i_i_glide_lignum>
5

> <r_i_docking_score>
-4.49314

> <r_i_glide_gscore>
-4.49314

> <r_i_glide_lipo>
-0.997228

> <r_i_glide_hbond>
-1.33526

> <r_i_glide_metal>
0

> <r_i_glide_eburp>
-5.50775e-17

> <r_i_glide_evdw>
-31.0091

> <r_i_glide_ecoul>
2.80495

> <r_i_glide_erotb>
0.277032

> <r_i_glide_esite>
-0.237453

> <r_i_glide_emodel>
-36.2907

> <r_i_glide_energy>
-28.2042

> <r_i_glide_einternal>
11.5917

> <i_i_glide_confnum>
179

> <i_i_glide_posenum>
290

$$$$
C06008
                    3D
 Structure written by MMmdl.
 18 17  0  0  1  0            999 V2000
    1.2220    1.9105    3.4795 C   0  0  0  0  0  0
    2.1910    1.3020    2.4449 C   0  0  1  0  0  0
    0.6759    3.3298    3.2055 C   0  0  0  0  0  0
    0.8776    1.2700    4.4749 O   0  0  0  0  0  0
    3.6036    1.0509    3.0225 C   0  0  0  0  0  0
    1.6011    0.0026    1.8675 C   0  0  0  0  0  0
    1.2641    3.9770    2.3105 O   0  0  0  0  0  0
    3.6317    0.1000    4.2297 C   0  0  0  0  0  0
    2.2977    2.0121    1.6233 H   0  0  0  0  0  0
    4.2670    0.6700    2.2447 H   0  0  0  0  0  0
    4.0317    2.0045    3.3332 H   0  0  0  0  0  0
    1.5091   -0.7676    2.6343 H   0  0  0  0  0  0
    0.6112    0.1647    1.4393 H   0  0  0  0  0  0
    2.2343   -0.3946    1.0739 H   0  0  0  0  0  0
    4.6432    0.0107    4.6262 H   0  0  0  0  0  0
    2.9921    0.4658    5.0332 H   0  0  0  0  0  0
    3.2958   -0.9023    3.9634 H   0  0  0  0  0  0
   -0.2979    3.6960    3.9011 O   0  5  0  0  0  0
  1  2  1  0  0  0
  1  3  1  0  0  0
  1  4  2  0  0  0
  2  5  1  0  0  0
  2  6  1  0  0  0
  2  9  1  0  0  0
  3  7  2  0  0  0
  3 18  1  0  0  0
  5  8  1  0  0  0
  5 10  1  0  0  0
  5 11  1  0  0  0
  6 12  1  0  0  0
  6 13  1  0  0  0
  6 14  1  0  0  0
  8 15  1  0  0  0
  8 16  1  0  0  0
  8 17  1  0  0  0
M  CHG  1  18  -1
M  END
> <i_ionizer_Ion_state_n>
1

> <i_ionizer_Tot_Q>
-1

> <s_ionizer_Ion_centers>
18

> <s_ionizer_Ion_types>
OM

> <s_ionizer_Ion_ctrs_in>
7

> <r_ionizer_Ionization_penalty>
0.00059219

> <r_ionizer_Ionization_penalty_charging>
0.00059219

> <r_ionizer_Ionization_penalty_neutral>
0

> <s_st_Chirality_1>
2_R_1_5_6_9

> <i_mmod_Serial_Number-OPLS-2005>
849

> <i_i_glide_lignum>
837

> <r_i_docking_score>
-4.49289

> <r_i_glide_gscore>
-4.49289

> <r_i_glide_lipo>
-0.333493

> <r_i_glide_hbond>
-0.7

> <r_i_glide_metal>
0

> <r_i_glide_eburp>
-2.5

> <r_i_glide_evdw>
-12.981

> <r_i_glide_ecoul>
-5.14121

> <r_i_glide_erotb>
0.946266

> <r_i_glide_esite>
-0.353058

> <r_i_glide_emodel>
-36.6747

> <r_i_glide_energy>
-18.1222

> <r_i_glide_einternal>
1.28946

> <i_i_glide_confnum>
3

> <i_i_glide_posenum>
584

$$$$
C00042
                    3D
 Structure written by MMmdl.
 12 11  0  0  1  0            999 V2000
    1.2265   -0.2734    2.3976 C   0  0  0  0  0  0
    2.1273    0.9403    2.6597 C   0  0  0  0  0  0
    0.0906   -0.0880    1.9055 O   0  0  0  0  0  0
    1.3700    2.2881    2.5801 C   0  0  0  0  0  0
    0.5199    2.5760    3.8241 C   0  0  0  0  0  0
   -0.0949    3.6638    3.8975 O   0  0  0  0  0  0
    2.5791    0.8196    3.6451 H   0  0  0  0  0  0
    2.9401    0.9213    1.9325 H   0  0  0  0  0  0
    2.0760    3.1102    2.4554 H   0  0  0  0  0  0
    0.7115    2.2996    1.7106 H   0  0  0  0  0  0
    1.7012   -1.3897    2.7012 O   0  5  0  0  0  0
    0.5001    1.6825    4.6988 O   0  5  0  0  0  0
  1  2  1  0  0  0
  1  3  2  0  0  0
  1 11  1  0  0  0
  2  4  1  0  0  0
  2  7  1  0  0  0
  2  8  1  0  0  0
  4  5  1  0  0  0
  4  9  1  0  0  0
  4 10  1  0  0  0
  5  6  2  0  0  0
  5 12  1  0  0  0
M  CHG  2  11  -1  12  -1
M  END
> <i_ionizer_Ion_state_n>
3

> <i_ionizer_Tot_Q>
-2

> <s_ionizer_Ion_centers>
11_12

> <s_ionizer_Ion_types>
OM_OM

> <s_ionizer_Ion_ctrs_in>
3_7

> <r_ionizer_Ionization_penalty>
0.00118438

> <r_ionizer_Ionization_penalty_charging>
0.00118438

> <r_ionizer_Ionization_penalty_neutral>
0

> <i_mmod_Serial_Number-OPLS-2005>
29

> <i_i_glide_lignum>
29

> <r_i_docking_score>
-4.4837

> <r_i_glide_gscore>
-4.4837

> <r_i_glide_lipo>
-0.169634

> <r_i_glide_hbond>
-1.07351

> <r_i_glide_metal>
0

> <r_i_glide_eburp>
-2.5

> <r_i_glide_evdw>
-7.35633

> <r_i_glide_ecoul>
-8.22056

> <r_i_glide_erotb>
1.1164

> <r_i_glide_esite>
-0.446393

> <r_i_glide_emodel>
-43.6437

> <r_i_glide_energy>
-15.5769

> <r_i_glide_einternal>
0.400855

> <i_i_glide_confnum>
1

> <i_i_glide_posenum>
900

$$$$
C00233
                    3D
 Structure written by MMmdl.
 18 17  0  0  1  0            999 V2000
    1.2636    1.9987    3.3526 C   0  0  0  0  0  0
    2.3068    1.5399    2.3189 C   0  0  0  0  0  0
    0.6607    3.4046    3.1532 C   0  0  0  0  0  0
    0.9030    1.2641    4.2744 O   0  0  0  0  0  0
    2.9769    0.1778    2.6190 C   0  0  0  0  0  0
    1.1889    4.1113    2.2655 O   0  0  0  0  0  0
    3.8973    0.2872    3.8443 C   0  0  0  0  0  0
    1.9525   -0.9543    2.8206 C   0  0  0  0  0  0
    1.7973    1.4881    1.3559 H   0  0  0  0  0  0
    3.0730    2.3102    2.2191 H   0  0  0  0  0  0
    3.6093   -0.0910    1.7714 H   0  0  0  0  0  0
    4.4051   -0.6574    4.0412 H   0  0  0  0  0  0
    4.6659    1.0459    3.6936 H   0  0  0  0  0  0
    3.3353    0.5561    4.7392 H   0  0  0  0  0  0
    2.4518   -1.9003    3.0314 H   0  0  0  0  0  0
    1.2855   -0.7388    3.6559 H   0  0  0  0  0  0
    1.3354   -1.1072    1.9354 H   0  0  0  0  0  0
   -0.2990    3.7004    3.8997 O   0  5  0  0  0  0
  1  2  1  0  0  0
  1  3  1  0  0  0
  1  4  2  0  0  0
  2  5  1  0  0  0
  2  9  1  0  0  0
  2 10  1  0  0  0
  3  6  2  0  0  0
  3 18  1  0  0  0
  5  7  1  0  0  0
  5  8  1  0  0  0
  5 11  1  0  0  0
  7 12  1  0  0  0
  7 13  1  0  0  0
  7 14  1  0  0  0
  8 15  1  0  0  0
  8 16  1  0  0  0
  8 17  1  0  0  0
M  CHG  1  18  -1
M  END
> <i_ionizer_Ion_state_n>
1

> <i_ionizer_Tot_Q>
-1

> <s_ionizer_Ion_centers>
18

> <s_ionizer_Ion_types>
OM

> <s_ionizer_Ion_ctrs_in>
6

> <r_ionizer_Ionization_penalty>
0.00059219

> <r_ionizer_Ionization_penalty_charging>
0.00059219

> <r_ionizer_Ionization_penalty_neutral>
0

> <i_mmod_Serial_Number-OPLS-2005>
153

> <i_i_glide_lignum>
151

> <r_i_docking_score>
-4.4759

> <r_i_glide_gscore>
-4.4759

> <r_i_glide_lipo>
-0.35457

> <r_i_glide_hbond>
-0.7

> <r_i_glide_metal>
0

> <r_i_glide_eburp>
-2.5

> <r_i_glide_evdw>
-13.3222

> <r_i_glide_ecoul>
-5.06147

> <r_i_glide_erotb>
0.946266

> <r_i_glide_esite>
-0.295676

> <r_i_glide_emodel>
-37.6365

> <r_i_glide_energy>
-18.3837

> <r_i_glide_einternal>
0.20267

> <i_i_glide_confnum>
1

> <i_i_glide_posenum>
742

$$$$
C00168
                    3D
 Structure written by MMmdl.
 10  9  0  0  1  0            999 V2000
    1.4938    0.6015    3.8105 C   0  0  0  0  0  0
    1.0555   -0.4172    2.7361 C   0  0  0  0  0  0
    2.7115    0.2139    4.6615 C   0  0  0  0  0  0
    0.8999    1.6694    3.9783 O   0  0  0  0  0  0
    0.0998   -0.0727    2.0046 O   0  0  0  0  0  0
    3.6907   -0.4692    3.9000 O   0  0  0  0  0  0
    3.1529    1.1134    5.0913 H   0  0  0  0  0  0
    2.3885   -0.4223    5.4858 H   0  0  0  0  0  0
    4.2221   -0.9845    4.4870 H   0  0  0  0  0  0
    1.6981   -1.4905    2.6995 O   0  5  0  0  0  0
  1  2  1  0  0  0
  1  3  1  0  0  0
  1  4  2  0  0  0
  2  5  2  0  0  0
  2 10  1  0  0  0
  3  6  1  0  0  0
  3  7  1  0  0  0
  3  8  1  0  0  0
  6  9  1  0  0  0
M  CHG  1  10  -1
M  END
> <i_ionizer_Ion_state_n>
1

> <i_ionizer_Tot_Q>
-1

> <s_ionizer_Ion_centers>
10

> <s_ionizer_Ion_types>
OM

> <s_ionizer_Ion_ctrs_in>
5

> <r_ionizer_Ionization_penalty>
0.00059219

> <r_ionizer_Ionization_penalty_charging>
0.00059219

> <r_ionizer_Ionization_penalty_neutral>
0

> <i_mmod_Serial_Number-OPLS-2005>
121

> <i_i_glide_lignum>
119

> <r_i_docking_score>
-4.47508

> <r_i_glide_gscore>
-4.47508

> <r_i_glide_lipo>
-0.083223

> <r_i_glide_hbond>
-0.791554

> <r_i_glide_metal>
0

> <r_i_glide_eburp>
-2.5

> <r_i_glide_evdw>
-11.933

> <r_i_glide_ecoul>
-8.68676

> <r_i_glide_erotb>
1.33806

> <r_i_glide_esite>
-0.615053

> <r_i_glide_emodel>
-34.5646

> <r_i_glide_energy>
-20.6197

> <r_i_glide_einternal>
0.815887

> <i_i_glide_confnum>
2

> <i_i_glide_posenum>
24

$$$$
C00033
                    3D
 Structure written by MMmdl.
  7  6  0  0  1  0            999 V2000
    0.9241   -0.3549    2.6113 C   0  0  0  0  0  0
    1.2548    0.8687    3.4577 C   0  0  0  0  0  0
   -0.0960   -0.2948    1.8909 O   0  0  0  0  0  0
    0.5188    1.6594    3.3086 H   0  0  0  0  0  0
    1.2650    0.6038    4.5150 H   0  0  0  0  0  0
    2.2367    1.2583    3.1891 H   0  0  0  0  0  0
    1.7000   -1.3311    2.7003 O   0  5  0  0  0  0
  1  2  1  0  0  0
  1  3  2  0  0  0
  1  7  1  0  0  0
  2  4  1  0  0  0
  2  5  1  0  0  0
  2  6  1  0  0  0
M  CHG  1   7  -1
M  END
> <i_ionizer_Ion_state_n>
1

> <i_ionizer_Tot_Q>
-1

> <s_ionizer_Ion_centers>
7

> <s_ionizer_Ion_types>
OM

> <s_ionizer_Ion_ctrs_in>
3

> <r_ionizer_Ionization_penalty>
0.00059219

> <r_ionizer_Ionization_penalty_charging>
0.00059219

> <r_ionizer_Ionization_penalty_neutral>
0

> <i_mmod_Serial_Number-OPLS-2005>
24

> <i_i_glide_lignum>
24

> <r_i_docking_score>
-4.46546

> <r_i_glide_gscore>
-4.46546

> <r_i_glide_lipo>
-0.103166

> <r_i_glide_hbond>
-0.594507

> <r_i_glide_metal>
0

> <r_i_glide_eburp>
-2.5

> <r_i_glide_evdw>
-6.28265

> <r_i_glide_ecoul>
-3.71338

> <r_i_glide_erotb>
0

> <r_i_glide_esite>
-0.393832

> <r_i_glide_emodel>
-20.2754

> <r_i_glide_energy>
-9.99603

> <r_i_glide_einternal>
0

> <i_i_glide_confnum>
1

> <i_i_glide_posenum>
336

$$$$
C00053
                    3D
 Structure written by MMmdl.
 42 44  0  0  1  0            999 V2000
    2.0214    5.6651    1.3893 N   0  0  0  0  0  0
    3.2605    4.8957    1.7120 C   0  0  1  0  0  0
    0.7378    5.3039    1.7299 C   0  0  0  0  0  0
    1.8911    6.8563    0.7064 C   0  0  0  0  0  0
    3.0793    4.1698    3.0506 C   0  0  1  0  0  0
    3.4164    3.9215    0.7233 O   0  0  0  0  0  0
   -0.1018    6.3269    1.2117 C   0  0  0  0  0  0
    0.3256    4.1989    2.4171 N   0  0  0  0  0  0
    0.6658    7.2917    0.5718 N   0  0  0  0  0  0
    2.6301    2.7918    2.5851 C   0  0  1  0  0  0
    4.3026    4.1157    3.7572 O   0  0  0  0  0  0
    3.4210    2.6143    1.2910 C   0  0  1  0  0  0
   -1.4897    6.1590    1.4448 C   0  0  0  0  0  0
   -1.0029    4.1775    2.5578 C   0  0  0  0  0  0
    2.8429    1.7520    3.5312 O   0  0  0  0  0  0
    2.7883    1.6080    0.3140 C   0  0  0  0  0  0
   -1.9052    5.0655    2.1258 N   0  0  0  0  0  0
   -2.4127    7.0329    1.0223 N   0  0  0  0  0  0
    1.4420    0.6903    3.8912 P   0  0  0  0  0  0
    3.6740    0.5776   -0.0987 O   0  0  0  0  0  0
    2.1163   -0.4412    4.6996 O   0  0  0  0  0  0
    5.2993    0.4773    0.4118 P   0  0  0  0  0  0
    5.9303   -0.8784   -0.4147 O   0  0  0  0  0  0
    6.0013    1.6764   -0.1015 O   0  0  0  0  0  0
    7.6018   -0.9732   -0.6457 S   0  0  0  0  0  0
    7.7135   -1.4981   -2.0162 O   0  0  0  0  0  0
    8.0777   -1.9006    0.3930 O   0  0  0  0  0  0
    4.0625    5.6352    1.6950 H   0  0  0  0  0  0
    2.7385    7.3965    0.3088 H   0  0  0  0  0  0
    2.3365    4.6683    3.6750 H   0  0  0  0  0  0
    1.5677    2.8328    2.3401 H   0  0  0  0  0  0
    4.5791    5.0166    3.8948 H   0  0  0  0  0  0
    4.4485    2.3418    1.5338 H   0  0  0  0  0  0
   -1.4011    3.3278    3.0923 H   0  0  0  0  0  0
    2.4395    2.1230   -0.5808 H   0  0  0  0  0  0
    1.9122    1.1501    0.7740 H   0  0  0  0  0  0
   -3.3893    6.8648    1.2134 H   0  0  0  0  0  0
   -2.1238    7.8539    0.5102 H   0  0  0  0  0  0
    0.5011    1.6232    4.6868 O   0  5  0  0  0  0
    0.9685    0.3115    2.4712 O   0  5  0  0  0  0
    5.3008    0.2206    1.8700 O   0  5  0  0  0  0
    8.0638    0.4162   -0.4988 O   0  5  0  0  0  0
  1  2  1  0  0  0
  1  3  1  0  0  0
  1  4  1  0  0  0
  2  5  1  0  0  0
  2  6  1  0  0  0
  2 28  1  0  0  0
  3  7  2  0  0  0
  3  8  1  0  0  0
  4  9  2  0  0  0
  4 29  1  0  0  0
  5 10  1  0  0  0
  5 11  1  0  0  0
  5 30  1  0  0  0
  6 12  1  0  0  0
  7 13  1  0  0  0
  7  9  1  0  0  0
  8 14  2  0  0  0
 10 15  1  0  0  0
 10 12  1  0  0  0
 10 31  1  0  0  0
 11 32  1  0  0  0
 12 16  1  0  0  0
 12 33  1  0  0  0
 13 17  2  0  0  0
 13 18  1  0  0  0
 14 17  1  0  0  0
 14 34  1  0  0  0
 15 19  1  0  0  0
 16 20  1  0  0  0
 16 35  1  0  0  0
 16 36  1  0  0  0
 18 37  1  0  0  0
 18 38  1  0  0  0
 19 21  2  0  0  0
 19 39  1  0  0  0
 19 40  1  0  0  0
 20 22  1  0  0  0
 22 23  1  0  0  0
 22 24  2  0  0  0
 22 41  1  0  0  0
 23 25  1  0  0  0
 25 26  2  0  0  0
 25 27  2  0  0  0
 25 42  1  0  0  0
M  CHG  4  39  -1  40  -1  41  -1  42  -1
M  END
> <i_ionizer_Ion_state_n>
30

> <i_ionizer_Tot_Q>
-4

> <s_ionizer_Ion_centers>
39_40_41_42

> <s_ionizer_Ion_types>
OM_OM_OM_OM

> <s_ionizer_Ion_ctrs_in>
21_22_26_29

> <r_ionizer_Ionization_penalty>
4.11131e-05

> <r_ionizer_Ionization_penalty_charging>
2.23773e-05

> <r_ionizer_Ionization_penalty_neutral>
1.87357e-05

> <s_st_Chirality_1>
2_R_6_1_5_28

> <s_st_Chirality_2>
5_R_11_2_10_30

> <s_st_Chirality_3>
10_R_15_5_12_31

> <s_st_Chirality_4>
12_R_6_10_16_33

> <i_mmod_Serial_Number-OPLS-2005>
37

> <i_i_glide_lignum>
36

> <r_i_docking_score>
-4.46495

> <r_i_glide_gscore>
-4.46495

> <r_i_glide_lipo>
-0.487599

> <r_i_glide_hbond>
-0.407637

> <r_i_glide_metal>
0

> <r_i_glide_eburp>
0

> <r_i_glide_evdw>
-40.9904

> <r_i_glide_ecoul>
-1.34597

> <r_i_glide_erotb>
0.553413

> <r_i_glide_esite>
-0.709306

> <r_i_glide_emodel>
-84.4862

> <r_i_glide_energy>
-42.3363

> <r_i_glide_einternal>
16.8364

> <i_i_glide_confnum>
179

> <i_i_glide_posenum>
407

$$$$
C00086
                    3D
 Structure written by MMmdl.
  8  7  0  0  1  0            999 V2000
    5.1732    1.2157    5.0596 C   0  0  0  0  0  0
    6.0843    0.5000    5.7160 N   0  0  0  0  0  0
    4.1093    0.5003    4.7000 N   0  0  0  0  0  0
    5.3008    2.4100    4.8119 O   0  0  0  0  0  0
    6.9282    0.9558    6.0306 H   0  0  0  0  0  0
    5.9393   -0.4810    5.8989 H   0  0  0  0  0  0
    3.3627    0.9563    4.1963 H   0  0  0  0  0  0
    4.0446   -0.4808    4.9241 H   0  0  0  0  0  0
  1  2  1  0  0  0
  1  3  1  0  0  0
  1  4  2  0  0  0
  2  5  1  0  0  0
  2  6  1  0  0  0
  3  7  1  0  0  0
  3  8  1  0  0  0
M  END
> <i_ionizer_Ion_state_n>
0

> <i_ionizer_Tot_Q>
0

> <s_ionizer_Ion_centers>


> <s_ionizer_Ion_types>


> <s_ionizer_Ion_ctrs_in>


> <r_ionizer_Ionization_penalty>
0

> <r_ionizer_Ionization_penalty_charging>
0

> <r_ionizer_Ionization_penalty_neutral>
0

> <i_mmod_Serial_Number-OPLS-2005>
61

> <i_i_glide_lignum>
60

> <r_i_docking_score>
-4.46339

> <r_i_glide_gscore>
-4.46339

> <r_i_glide_lipo>
0

> <r_i_glide_hbond>
-0.9

> <r_i_glide_metal>
0

> <r_i_glide_eburp>
-2.5

> <r_i_glide_evdw>
-9.3727

> <r_i_glide_ecoul>
-5.77273

> <r_i_glide_erotb>
0

> <r_i_glide_esite>
0.263699

> <r_i_glide_emodel>
-19.5045

> <r_i_glide_energy>
-15.1454

> <r_i_glide_einternal>
0

> <i_i_glide_confnum>
1

> <i_i_glide_posenum>
386

$$$$
C05951
                    3D
 Structure written by MMmdl.
 73 72  0  0  1  0            999 V2000
   -3.5676   10.0254    5.7032 C   0  0  1  0  0  0
   -3.1932   11.7508    6.1902 S   0  0  0  0  0  0
   -5.0480    9.6309    5.9301 C   0  0  2  0  0  0
   -3.0866    9.6943    4.2959 C   0  0  0  0  0  0
   -1.4701   12.0340    5.6514 C   0  0  0  0  0  0
   -6.0423   10.4986    5.1291 C   0  0  0  0  0  0
   -5.3654    9.7016    7.3069 O   0  0  0  0  0  0
   -2.0945    8.8448    3.9765 C   0  0  0  0  0  0
   -0.5161   12.3717    6.8218 C   0  0  1  0  0  0
   -7.5256   10.2255    5.4438 C   0  0  0  0  0  0
   -1.6973    8.5840    2.6089 C   0  0  0  0  0  0
   -0.4583   11.2539    7.8763 C   0  0  0  0  0  0
   -8.4562   11.4158    5.1215 C   0  0  0  0  0  0
   -0.6821    7.7641    2.2921 C   0  0  0  0  0  0
   -0.7242   11.5889    9.1494 N   0  0  0  0  0  0
   -0.2096   10.1024    7.5217 O   0  0  0  0  0  0
   -8.8054   11.5270    3.6324 C   0  0  0  0  0  0
   -0.2877    7.5026    0.9202 C   0  0  0  0  0  0
   -0.8003   10.6734   10.2820 C   0  0  0  0  0  0
   -8.6193   12.6186    3.0502 O   0  0  0  0  0  0
    0.7749    6.7712    0.5342 C   0  0  0  0  0  0
   -1.9744    9.7142   10.0874 C   0  0  0  0  0  0
    1.7856    6.0725    1.4263 C   0  0  0  0  0  0
   -2.3072    9.0154   11.0711 O   0  0  0  0  0  0
    2.0509    4.6702    0.9115 C   0  0  0  0  0  0
    1.7107    3.5114    1.5059 C   0  0  0  0  0  0
    0.9577    3.3393    2.8128 C   0  0  0  0  0  0
    1.3614    2.0515    3.5430 C   0  0  0  0  0  0
    1.0895    0.7928    2.7066 C   0  0  0  0  0  0
    1.6689   -0.4774    3.3457 C   0  0  0  0  0  0
    3.1981   -0.4423    3.4424 C   0  0  0  0  0  0
   -2.9512    9.4052    6.3530 H   0  0  0  0  0  0
   -5.1785    8.5988    5.6177 H   0  0  0  0  0  0
   -3.6058   10.2099    3.5007 H   0  0  0  0  0  0
   -1.1303   11.1331    5.1389 H   0  0  0  0  0  0
   -1.4606   12.8250    4.9020 H   0  0  0  0  0  0
   -5.8332   11.5536    5.3115 H   0  0  0  0  0  0
   -5.8812   10.3449    4.0614 H   0  0  0  0  0  0
   -6.1451    9.1901    7.4613 H   0  0  0  0  0  0
   -1.5653    8.3357    4.7688 H   0  0  0  0  0  0
   -0.8533   13.2811    7.3181 H   0  0  0  0  0  0
   -7.8590    9.3311    4.9160 H   0  0  0  0  0  0
   -7.6057    9.9932    6.5069 H   0  0  0  0  0  0
   -2.2417    9.0698    1.8114 H   0  0  0  0  0  0
    1.1935   11.8936    5.7890 H   0  0  0  0  0  0
    0.7739   13.4843    5.6800 H   0  0  0  0  0  0
   -9.3861   11.3230    5.6836 H   0  0  0  0  0  0
   -7.9976   12.3573    5.4208 H   0  0  0  0  0  0
   -0.1508    7.2882    3.1017 H   0  0  0  0  0  0
   -0.9588   12.5461    9.3647 H   0  0  0  0  0  0
   -0.8980    7.9265    0.1356 H   0  0  0  0  0  0
    0.1226   10.1069   10.4182 H   0  0  0  0  0  0
   -0.9602   11.2483   11.1942 H   0  0  0  0  0  0
    0.9452    6.6512   -0.5260 H   0  0  0  0  0  0
    2.7203    6.6325    1.3932 H   0  0  0  0  0  0
    1.4852    6.0660    2.4704 H   0  0  0  0  0  0
    2.5688    4.6210   -0.0353 H   0  0  0  0  0  0
    1.9898    2.5899    1.0158 H   0  0  0  0  0  0
    1.1000    4.1983    3.4656 H   0  0  0  0  0  0
   -0.1076    3.3146    2.5815 H   0  0  0  0  0  0
    2.4205    2.0953    3.8007 H   0  0  0  0  0  0
    0.8162    1.9852    4.4855 H   0  0  0  0  0  0
    0.0136    0.6724    2.5724 H   0  0  0  0  0  0
    1.5119    0.9220    1.7093 H   0  0  0  0  0  0
    1.2493   -0.6093    4.3437 H   0  0  0  0  0  0
    1.3661   -1.3499    2.7658 H   0  0  0  0  0  0
    3.5795   -1.3557    3.8992 H   0  0  0  0  0  0
    3.6531   -0.3487    2.4559 H   0  0  0  0  0  0
    3.5353    0.3988    4.0489 H   0  0  0  0  0  0
    0.8280   12.6860    6.2965 N   0  3  0  0  0  0
    1.4440   12.8998    7.0686 H   0  0  0  0  0  0
   -9.2716   10.4967    3.0995 O   0  5  0  0  0  0
   -2.5256    9.7034    8.9658 O   0  5  0  0  0  0
  1  2  1  0  0  0
  1  3  1  0  0  0
  1  4  1  0  0  0
  1 32  1  0  0  0
  2  5  1  0  0  0
  3  6  1  0  0  0
  3  7  1  0  0  0
  3 33  1  0  0  0
  4  8  2  0  0  0
  4 34  1  0  0  0
  5  9  1  0  0  0
  5 35  1  0  0  0
  5 36  1  0  0  0
  6 10  1  0  0  0
  6 37  1  0  0  0
  6 38  1  0  0  0
  7 39  1  0  0  0
  8 11  1  0  0  0
  8 40  1  0  0  0
  9 12  1  0  0  0
  9 41  1  0  0  0
  9 70  1  0  0  0
 10 13  1  0  0  0
 10 42  1  0  0  0
 10 43  1  0  0  0
 11 14  2  0  0  0
 11 44  1  0  0  0
 12 15  1  0  0  0
 12 16  2  0  0  0
 13 17  1  0  0  0
 13 47  1  0  0  0
 13 48  1  0  0  0
 14 18  1  0  0  0
 14 49  1  0  0  0
 15 19  1  0  0  0
 15 50  1  0  0  0
 17 20  2  0  0  0
 17 72  1  0  0  0
 18 21  2  0  0  0
 18 51  1  0  0  0
 19 22  1  0  0  0
 19 52  1  0  0  0
 19 53  1  0  0  0
 21 23  1  0  0  0
 21 54  1  0  0  0
 22 24  2  0  0  0
 22 73  1  0  0  0
 23 25  1  0  0  0
 23 55  1  0  0  0
 23 56  1  0  0  0
 25 26  2  0  0  0
 25 57  1  0  0  0
 26 27  1  0  0  0
 26 58  1  0  0  0
 27 28  1  0  0  0
 27 59  1  0  0  0
 27 60  1  0  0  0
 28 29  1  0  0  0
 28 61  1  0  0  0
 28 62  1  0  0  0
 29 30  1  0  0  0
 29 63  1  0  0  0
 29 64  1  0  0  0
 30 31  1  0  0  0
 30 65  1  0  0  0
 30 66  1  0  0  0
 31 67  1  0  0  0
 31 68  1  0  0  0
 31 69  1  0  0  0
 45 70  1  0  0  0
 46 70  1  0  0  0
 70 71  1  0  0  0
M  CHG  3  70   1  72  -1  73  -1
M  END
> <i_ionizer_Ion_state_n>
7

> <i_ionizer_Tot_Q>
-1

> <s_ionizer_Ion_centers>
70_72_73

> <s_ionizer_Ion_types>
N5_OM_OM

> <s_ionizer_Ion_ctrs_in>
13_21_26

> <r_ionizer_Ionization_penalty>
0.00137171

> <r_ionizer_Ionization_penalty_charging>
0.00137171

> <r_ionizer_Ionization_penalty_neutral>
0

> <s_st_Chirality_1>
1_R_2_3_4_32

> <s_st_Chirality_2>
3_S_7_1_6_33

> <s_st_Chirality_3>
9_R_70_5_12_41

> <s_st_EZ_1>
1_4_8_11_E

> <s_st_EZ_2>
14_18_21_23_Z

> <s_st_EZ_3>
23_25_26_27_Z

> <i_mmod_Serial_Number-OPLS-2005>
835

> <i_i_glide_lignum>
823

> <r_i_docking_score>
-4.4462

> <r_i_glide_gscore>
-4.4462

> <r_i_glide_lipo>
-1.35193

> <r_i_glide_hbond>
-1.66961

> <r_i_glide_metal>
0

> <r_i_glide_eburp>
-0.432853

> <r_i_glide_evdw>
-32.8883

> <r_i_glide_ecoul>
-9.59334

> <r_i_glide_erotb>
1.70704

> <r_i_glide_esite>
0.891561

> <r_i_glide_emodel>
-82.6055

> <r_i_glide_energy>
-42.4816

> <r_i_glide_einternal>
12.5222

> <i_i_glide_confnum>
508

> <i_i_glide_posenum>
411

$$$$
C00026
                    3D
 Structure written by MMmdl.
 14 13  0  0  1  0            999 V2000
    0.8283    2.7103    3.2167 C   0  0  0  0  0  0
    1.9846    2.2047    2.3396 C   0  0  0  0  0  0
    0.0983    3.9917    2.7514 C   0  0  0  0  0  0
    0.5002    2.1165    4.2465 O   0  0  0  0  0  0
    2.4660    0.7835    2.7146 C   0  0  0  0  0  0
    0.7695    4.8003    2.0716 O   0  0  0  0  0  0
    1.4129   -0.2999    2.4512 C   0  0  0  0  0  0
    1.6994   -1.4925    2.6992 O   0  0  0  0  0  0
    1.6564    2.2231    1.2992 H   0  0  0  0  0  0
    2.8114    2.9114    2.4250 H   0  0  0  0  0  0
    3.3629    0.5287    2.1485 H   0  0  0  0  0  0
    2.7354    0.7442    3.7709 H   0  0  0  0  0  0
   -1.0991    4.0988    3.1001 O   0  5  0  0  0  0
    0.3170    0.0948    1.9968 O   0  5  0  0  0  0
  1  2  1  0  0  0
  1  3  1  0  0  0
  1  4  2  0  0  0
  2  5  1  0  0  0
  2  9  1  0  0  0
  2 10  1  0  0  0
  3  6  2  0  0  0
  3 13  1  0  0  0
  5  7  1  0  0  0
  5 11  1  0  0  0
  5 12  1  0  0  0
  7  8  2  0  0  0
  7 14  1  0  0  0
M  CHG  2  13  -1  14  -1
M  END
> <i_ionizer_Ion_state_n>
3

> <i_ionizer_Tot_Q>
-2

> <s_ionizer_Ion_centers>
13_14

> <s_ionizer_Ion_types>
OM_OM

> <s_ionizer_Ion_ctrs_in>
6_9

> <r_ionizer_Ionization_penalty>
0.00118438

> <r_ionizer_Ionization_penalty_charging>
0.00118438

> <r_ionizer_Ionization_penalty_neutral>
0

> <i_mmod_Serial_Number-OPLS-2005>
21

> <i_i_glide_lignum>
21

> <r_i_docking_score>
-4.4446

> <r_i_glide_gscore>
-4.4446

> <r_i_glide_lipo>
-0.142871

> <r_i_glide_hbond>
-1.35129

> <r_i_glide_metal>
0

> <r_i_glide_eburp>
-2.5

> <r_i_glide_evdw>
-11.9632

> <r_i_glide_ecoul>
-6.75406

> <r_i_glide_erotb>
1.59232

> <r_i_glide_esite>
-0.410295

> <r_i_glide_emodel>
-46.9776

> <r_i_glide_energy>
-18.7172

> <r_i_glide_einternal>
0.949818

> <i_i_glide_confnum>
1

> <i_i_glide_posenum>
799

$$$$
C01227
                    3D
 Structure written by MMmdl.
 49 52  0  0  1  0            999 V2000
    1.8426    3.5028    2.9737 C   0  0  2  0  0  0
    1.7646    3.9253    1.4696 C   0  0  1  0  0  0
    1.8682    1.9650    3.0680 C   0  0  1  0  0  0
    0.6657    4.0770    3.7837 C   0  0  0  0  0  0
    1.7604    5.4898    1.3002 C   0  0  2  0  0  0
    2.8239    3.1748    0.5948 C   0  0  0  0  0  0
    3.0543    1.3378    2.3222 C   0  0  2  0  0  0
    1.8417    1.2681    4.4364 C   0  0  0  0  0  0
    0.2869    5.4823    3.3751 C   0  0  0  0  0  0
    0.7606    6.1183    2.2889 C   0  0  0  0  0  0
    1.3626    5.9117   -0.1545 C   0  0  0  0  0  0
    3.1595    6.0847    1.5989 C   0  0  0  0  0  0
    2.8754    1.6464    0.8258 C   0  0  0  0  0  0
    2.8582   -0.1174    2.7366 C   0  0  0  0  0  0
    4.4533    1.7790    2.8296 C   0  0  0  0  0  0
    2.1879   -0.1987    4.1069 C   0  0  0  0  0  0
    0.2029    7.4661    1.8668 C   0  0  0  0  0  0
   -0.1430    6.1742   -0.3344 C   0  0  0  0  0  0
    3.2003   -1.0917    2.0688 O   0  0  0  0  0  0
   -0.6436    7.3103    0.5860 C   0  0  2  0  0  0
   -0.6696    8.5420   -0.1049 O   0  0  0  0  0  0
    2.7563    3.8968    3.4143 H   0  0  0  0  0  0
    0.7940    3.5767    1.1119 H   0  0  0  0  0  0
    0.9519    1.6359    2.5688 H   0  0  0  0  0  0
   -0.2233    3.4596    3.6503 H   0  0  0  0  0  0
    0.9002    4.0650    4.8485 H   0  0  0  0  0  0
    2.6357    3.3355   -0.4646 H   0  0  0  0  0  0
    3.8183    3.5771    0.7754 H   0  0  0  0  0  0
    2.5844    1.6994    5.1086 H   0  0  0  0  0  0
    0.8682    1.3555    4.9199 H   0  0  0  0  0  0
   -0.4636    5.9608    3.9873 H   0  0  0  0  0  0
    1.8794    6.8339   -0.4250 H   0  0  0  0  0  0
    1.6922    5.1893   -0.8966 H   0  0  0  0  0  0
    3.1453    7.1742    1.5717 H   0  0  0  0  0  0
    3.5275    5.8048    2.5850 H   0  0  0  0  0  0
    3.9025    5.7736    0.8655 H   0  0  0  0  0  0
    1.9586    1.1893    0.4500 H   0  0  0  0  0  0
    3.6912    1.2116    0.2467 H   0  0  0  0  0  0
    4.6117    2.8536    2.7594 H   0  0  0  0  0  0
    4.6251    1.5052    3.8713 H   0  0  0  0  0  0
    5.2423    1.3066    2.2431 H   0  0  0  0  0  0
    2.8501   -0.6431    4.8501 H   0  0  0  0  0  0
    1.2881   -0.8096    4.0293 H   0  0  0  0  0  0
   -0.3937    7.9141    2.6625 H   0  0  0  0  0  0
    1.0412    8.1426    1.6976 H   0  0  0  0  0  0
   -0.3771    6.3893   -1.3779 H   0  0  0  0  0  0
   -0.6812    5.2563   -0.0940 H   0  0  0  0  0  0
   -1.6733    7.0848    0.8664 H   0  0  0  0  0  0
   -0.2215    9.1894    0.4176 H   0  0  0  0  0  0
  1  2  1  0  0  0
  1  3  1  0  0  0
  1  4  1  0  0  0
  1 22  1  0  0  0
  2  5  1  0  0  0
  2  6  1  0  0  0
  2 23  1  0  0  0
  3  7  1  0  0  0
  3  8  1  0  0  0
  3 24  1  0  0  0
  4  9  1  0  0  0
  4 25  1  0  0  0
  4 26  1  0  0  0
  5 10  1  0  0  0
  5 11  1  0  0  0
  5 12  1  0  0  0
  6 13  1  0  0  0
  6 27  1  0  0  0
  6 28  1  0  0  0
  7 14  1  0  0  0
  7 15  1  0  0  0
  7 13  1  0  0  0
  8 16  1  0  0  0
  8 29  1  0  0  0
  8 30  1  0  0  0
  9 10  2  0  0  0
  9 31  1  0  0  0
 10 17  1  0  0  0
 11 18  1  0  0  0
 11 32  1  0  0  0
 11 33  1  0  0  0
 12 34  1  0  0  0
 12 35  1  0  0  0
 12 36  1  0  0  0
 13 37  1  0  0  0
 13 38  1  0  0  0
 14 19  2  0  0  0
 14 16  1  0  0  0
 15 39  1  0  0  0
 15 40  1  0  0  0
 15 41  1  0  0  0
 16 42  1  0  0  0
 16 43  1  0  0  0
 17 20  1  0  0  0
 17 44  1  0  0  0
 17 45  1  0  0  0
 18 20  1  0  0  0
 18 46  1  0  0  0
 18 47  1  0  0  0
 20 21  1  0  0  0
 20 48  1  0  0  0
 21 49  1  0  0  0
M  END
> <i_ionizer_Ion_state_n>
0

> <i_ionizer_Tot_Q>
0

> <s_ionizer_Ion_centers>


> <s_ionizer_Ion_types>


> <s_ionizer_Ion_ctrs_in>


> <r_ionizer_Ionization_penalty>
0

> <r_ionizer_Ionization_penalty_charging>
0

> <r_ionizer_Ionization_penalty_neutral>
0

> <s_st_Chirality_1>
1_R_3_2_4_22

> <s_st_Chirality_2>
2_S_5_1_6_23

> <s_st_Chirality_3>
3_S_7_1_8_24

> <s_st_Chirality_4>
5_R_10_2_11_12

> <s_st_Chirality_5>
7_S_14_3_13_15

> <s_st_Chirality_6>
20_S_21_17_18_48

> <s_st_EZ_1>
4_9_10_5_Z

> <i_mmod_Serial_Number-OPLS-2005>
426

> <i_i_glide_lignum>
422

> <r_i_docking_score>
-4.43657

> <r_i_glide_gscore>
-4.43657

> <r_i_glide_lipo>
-1.65153

> <r_i_glide_hbond>
-0.45

> <r_i_glide_metal>
0

> <r_i_glide_eburp>
-1.60277

> <r_i_glide_evdw>
5.08506

> <r_i_glide_ecoul>
-3.30756

> <r_i_glide_erotb>
0

> <r_i_glide_esite>
-0.808307

> <r_i_glide_emodel>
2.53597

> <r_i_glide_energy>
1.77749

> <r_i_glide_einternal>
1.64694

> <i_i_glide_confnum>
1

> <i_i_glide_posenum>
256

$$$$
C00186
                    3D
 Structure written by MMmdl.
 11 10  0  0  1  0            999 V2000
    1.0814    1.1977    3.7034 C   0  0  2  0  0  0
    0.9303    2.7163    3.5010 C   0  0  0  0  0  0
    2.5500    0.7560    3.8447 C   0  0  0  0  0  0
    0.4996    0.5034    2.6162 O   0  0  0  0  0  0
    1.6496    3.2803    2.6457 O   0  0  0  0  0  0
    0.5369    0.9262    4.6082 H   0  0  0  0  0  0
    2.6198   -0.3180    4.0182 H   0  0  0  0  0  0
    3.1257    0.9836    2.9464 H   0  0  0  0  0  0
    3.0338    1.2522    4.6870 H   0  0  0  0  0  0
    0.9891    0.7069    1.8350 H   0  0  0  0  0  0
    0.0968    3.3005    4.2287 O   0  5  0  0  0  0
  1  2  1  0  0  0
  1  3  1  0  0  0
  1  4  1  0  0  0
  1  6  1  0  0  0
  2  5  2  0  0  0
  2 11  1  0  0  0
  3  7  1  0  0  0
  3  8  1  0  0  0
  3  9  1  0  0  0
  4 10  1  0  0  0
M  CHG  1  11  -1
M  END
> <i_ionizer_Ion_state_n>
1

> <i_ionizer_Tot_Q>
-1

> <s_ionizer_Ion_centers>
11

> <s_ionizer_Ion_types>
OM

> <s_ionizer_Ion_ctrs_in>
5

> <r_ionizer_Ionization_penalty>
0.00059219

> <r_ionizer_Ionization_penalty_charging>
0.00059219

> <r_ionizer_Ionization_penalty_neutral>
0

> <s_st_Chirality_1>
1_S_4_2_3_6

> <i_mmod_Serial_Number-OPLS-2005>
131

> <i_i_glide_lignum>
129

> <r_i_docking_score>
-4.43035

> <r_i_glide_gscore>
-4.43035

> <r_i_glide_lipo>
-0.171305

> <r_i_glide_hbond>
-0.7

> <r_i_glide_metal>
0

> <r_i_glide_eburp>
-2.5

> <r_i_glide_evdw>
-7.89649

> <r_i_glide_ecoul>
-4.46964

> <r_i_glide_erotb>
0

> <r_i_glide_esite>
0.0196356

> <r_i_glide_emodel>
-27.2956

> <r_i_glide_energy>
-12.3661

> <r_i_glide_einternal>
0.439093

> <i_i_glide_confnum>
1

> <i_i_glide_posenum>
354

$$$$
C00009
                    3D
 Structure written by MMmdl.
  5  4  0  0  1  0            999 V2000
    1.1077   -0.0578    2.5429 P   0  0  0  0  0  0
    1.7126   -1.4772    2.9627 O   0  0  0  0  0  0
    2.1174    0.6778    1.5449 O   0  5  0  0  0  0
   -0.2997   -0.2725    1.8148 O   0  5  0  0  0  0
    0.9004    0.8406    3.8493 O   0  5  0  0  0  0
  1  2  2  0  0  0
  1  3  1  0  0  0
  1  4  1  0  0  0
  1  5  1  0  0  0
M  CHG  3   3  -1   4  -1   5  -1
M  END
> <i_ionizer_Ion_state_n>
7

> <i_ionizer_Tot_Q>
-3

> <s_ionizer_Ion_centers>
3_4_5

> <s_ionizer_Ion_types>
OM_OM_OM

> <s_ionizer_Ion_ctrs_in>
2_3_4

> <r_ionizer_Ionization_penalty>
2.23767e-05

> <r_ionizer_Ionization_penalty_charging>
2.23767e-05

> <r_ionizer_Ionization_penalty_neutral>
0

> <i_mmod_Serial_Number-OPLS-2005>
8

> <i_i_glide_lignum>
8

> <r_i_docking_score>
-4.40296

> <r_i_glide_gscore>
-4.40296

> <r_i_glide_lipo>
0

> <r_i_glide_hbond>
-0.653487

> <r_i_glide_metal>
0

> <r_i_glide_eburp>
-2.5

> <r_i_glide_evdw>
-5.0193

> <r_i_glide_ecoul>
-5.75948

> <r_i_glide_erotb>
0

> <r_i_glide_esite>
-0.271985

> <r_i_glide_emodel>
-31.2387

> <r_i_glide_energy>
-10.7788

> <r_i_glide_einternal>
0

> <i_i_glide_confnum>
1

> <i_i_glide_posenum>
205

$$$$
C00819
                    3D
 Structure written by MMmdl.
 20 19  0  0  1  0            999 V2000
    5.6708   -0.6077    0.2926 C   0  0  2  0  0  0
    4.2392   -0.4844    0.8596 C   0  0  0  0  0  0
    6.2274    0.7673   -0.1000 C   0  0  0  0  0  0
    4.2038    0.1357    2.2705 C   0  0  0  0  0  0
    5.4061    1.6576   -0.4159 O   0  0  0  0  0  0
    2.8606   -0.0655    2.9789 C   0  0  0  0  0  0
    2.8964   -0.5731    4.2124 N   0  0  0  0  0  0
    1.8027    0.2305    2.4279 O   0  0  0  0  0  0
    6.3225   -1.0517    1.0475 H   0  0  0  0  0  0
    3.6383    0.1405    0.1957 H   0  0  0  0  0  0
    3.7584   -1.4646    0.8648 H   0  0  0  0  0  0
    6.6519   -1.5454   -1.2296 H   0  0  0  0  0  0
    5.3434   -2.3875   -0.6701 H   0  0  0  0  0  0
    4.9822   -0.3043    2.8944 H   0  0  0  0  0  0
    4.4199    1.2032    2.2054 H   0  0  0  0  0  0
    2.0319   -0.7191    4.7132 H   0  0  0  0  0  0
    3.7798   -0.8052    4.6420 H   0  0  0  0  0  0
    5.7003   -1.4717   -0.8998 N   0  3  0  0  0  0
    5.1304   -1.0495   -1.6191 H   0  0  0  0  0  0
    7.4705    0.8992   -0.1005 O   0  5  0  0  0  0
  1  2  1  0  0  0
  1  3  1  0  0  0
  1  9  1  0  0  0
  1 18  1  0  0  0
  2  4  1  0  0  0
  2 10  1  0  0  0
  2 11  1  0  0  0
  3  5  2  0  0  0
  3 20  1  0  0  0
  4  6  1  0  0  0
  4 14  1  0  0  0
  4 15  1  0  0  0
  6  7  1  0  0  0
  6  8  2  0  0  0
  7 16  1  0  0  0
  7 17  1  0  0  0
 12 18  1  0  0  0
 13 18  1  0  0  0
 18 19  1  0  0  0
M  CHG  2  18   1  20  -1
M  END
> <i_ionizer_Ion_state_n>
3

> <i_ionizer_Tot_Q>
0

> <s_ionizer_Ion_centers>
18_20

> <s_ionizer_Ion_types>
N5_OM

> <s_ionizer_Ion_ctrs_in>
4_6

> <r_ionizer_Ionization_penalty>
0.000779521

> <r_ionizer_Ionization_penalty_charging>
0.000779521

> <r_ionizer_Ionization_penalty_neutral>
0

> <s_st_Chirality_1>
1_R_18_3_2_9

> <i_mmod_Serial_Number-OPLS-2005>
341

> <i_i_glide_lignum>
338

> <r_i_docking_score>
-4.40043

> <r_i_glide_gscore>
-4.40043

> <r_i_glide_lipo>
-0.245288

> <r_i_glide_hbond>
-1.27964

> <r_i_glide_metal>
0

> <r_i_glide_eburp>
-2.5

> <r_i_glide_evdw>
-13.723

> <r_i_glide_ecoul>
-9.77177

> <r_i_glide_erotb>
1.55669

> <r_i_glide_esite>
0.142826

> <r_i_glide_emodel>
-43.1913

> <r_i_glide_energy>
-23.4948

> <r_i_glide_einternal>
2.68747

> <i_i_glide_confnum>
4

> <i_i_glide_posenum>
104

$$$$
C00047
                    3D
 Structure written by MMmdl.
 25 24  0  0  1  0            999 V2000
    2.6056    0.7775    4.1591 C   0  0  1  0  0  0
    3.7734    1.5392    3.4925 C   0  0  0  0  0  0
    1.3151    0.9291    3.3433 C   0  0  0  0  0  0
    4.9460    1.8121    4.4491 C   0  0  0  0  0  0
    1.0281    0.0160    2.5367 O   0  0  0  0  0  0
    5.6641    0.5237    4.8783 C   0  0  0  0  0  0
    6.3349    0.6513    6.2533 C   0  0  0  0  0  0
    2.4400    1.1751    5.1622 H   0  0  0  0  0  0
    4.1293    0.9918    2.6179 H   0  0  0  0  0  0
    3.4112    2.4985    3.1176 H   0  0  0  0  0  0
    2.1235   -1.1172    4.7373 H   0  0  0  0  0  0
    3.0168   -1.0474    3.3558 H   0  0  0  0  0  0
    5.6607    2.4787    3.9644 H   0  0  0  0  0  0
    4.5843    2.3372    5.3338 H   0  0  0  0  0  0
    4.9485   -0.2996    4.8957 H   0  0  0  0  0  0
    6.4150    0.2643    4.1306 H   0  0  0  0  0  0
    7.1355    1.3910    6.2177 H   0  0  0  0  0  0
    5.6141    0.9925    6.9973 H   0  0  0  0  0  0
    7.3338   -0.5197    7.6011 H   0  0  0  0  0  0
    6.1638   -1.3235    6.7630 H   0  0  0  0  0  0
    2.9003   -0.6604    4.2815 N   0  3  0  0  0  0
    3.7427   -0.7950    4.8209 H   0  0  0  0  0  0
    0.6228    1.9475    3.5575 O   0  5  0  0  0  0
    6.8998   -0.6349    6.6962 N   0  3  0  0  0  0
    7.5922   -0.9475    6.0304 H   0  0  0  0  0  0
  1  2  1  0  0  0
  1  3  1  0  0  0
  1  8  1  0  0  0
  1 21  1  0  0  0
  2  4  1  0  0  0
  2  9  1  0  0  0
  2 10  1  0  0  0
  3  5  2  0  0  0
  3 23  1  0  0  0
  4  6  1  0  0  0
  4 13  1  0  0  0
  4 14  1  0  0  0
  6  7  1  0  0  0
  6 15  1  0  0  0
  6 16  1  0  0  0
  7 17  1  0  0  0
  7 18  1  0  0  0
  7 24  1  0  0  0
 11 21  1  0  0  0
 12 21  1  0  0  0
 19 24  1  0  0  0
 20 24  1  0  0  0
 21 22  1  0  0  0
 24 25  1  0  0  0
M  CHG  3  21   1  23  -1  24   1
M  END
> <i_ionizer_Ion_state_n>
7

> <i_ionizer_Tot_Q>
1

> <s_ionizer_Ion_centers>
21_23_24

> <s_ionizer_Ion_types>
N5_OM_N5

> <s_ionizer_Ion_ctrs_in>
4_6_10

> <r_ionizer_Ionization_penalty>
0.000966851

> <r_ionizer_Ionization_penalty_charging>
0.000966851

> <r_ionizer_Ionization_penalty_neutral>
0

> <s_st_Chirality_1>
1_S_21_3_2_8

> <i_mmod_Serial_Number-OPLS-2005>
32

> <i_i_glide_lignum>
31

> <r_i_docking_score>
-4.3977

> <r_i_glide_gscore>
-4.3977

> <r_i_glide_lipo>
-0.459994

> <r_i_glide_hbond>
-1.29071

> <r_i_glide_metal>
0

> <r_i_glide_eburp>
-2.5

> <r_i_glide_evdw>
-12.0309

> <r_i_glide_ecoul>
-9.87213

> <r_i_glide_erotb>
2.3085

> <r_i_glide_esite>
-0.505805

> <r_i_glide_emodel>
-49.091

> <r_i_glide_energy>
-21.9031

> <r_i_glide_einternal>
6.07116

> <i_i_glide_confnum>
4

> <i_i_glide_posenum>
81

$$$$
C00064
                    3D
 Structure written by MMmdl.
 20 19  0  0  1  0            999 V2000
    1.8135    0.6026    3.8696 C   0  0  1  0  0  0
    2.5809    1.7321    3.1475 C   0  0  0  0  0  0
    1.1591   -0.3503    2.8605 C   0  0  0  0  0  0
    1.6785    2.5774    2.2268 C   0  0  0  0  0  0
    1.6988   -1.4653    2.6802 O   0  0  0  0  0  0
    0.8615    3.6258    2.9884 C   0  0  0  0  0  0
    1.0110    4.8982    2.6155 N   0  0  0  0  0  0
    0.1054    3.3000    3.9007 O   0  0  0  0  0  0
    1.0369    1.0384    4.5009 H   0  0  0  0  0  0
    3.0760    2.3703    3.8820 H   0  0  0  0  0  0
    3.3789    1.2988    2.5409 H   0  0  0  0  0  0
    2.1724   -0.9003    5.2005 H   0  0  0  0  0  0
    3.4113   -0.6264    4.1503 H   0  0  0  0  0  0
    2.2906    3.0759    1.4736 H   0  0  0  0  0  0
    0.9818    1.9339    1.6890 H   0  0  0  0  0  0
    0.4910    5.6191    3.0945 H   0  0  0  0  0  0
    1.6410    5.1379    1.8641 H   0  0  0  0  0  0
    2.7107   -0.1869    4.7304 N   0  3  0  0  0  0
    3.1531    0.4145    5.4097 H   0  0  0  0  0  0
    0.1129    0.0439    2.3013 O   0  5  0  0  0  0
  1  2  1  0  0  0
  1  3  1  0  0  0
  1  9  1  0  0  0
  1 18  1  0  0  0
  2  4  1  0  0  0
  2 10  1  0  0  0
  2 11  1  0  0  0
  3  5  2  0  0  0
  3 20  1  0  0  0
  4  6  1  0  0  0
  4 14  1  0  0  0
  4 15  1  0  0  0
  6  7  1  0  0  0
  6  8  2  0  0  0
  7 16  1  0  0  0
  7 17  1  0  0  0
 12 18  1  0  0  0
 13 18  1  0  0  0
 18 19  1  0  0  0
M  CHG  2  18   1  20  -1
M  END
> <i_ionizer_Ion_state_n>
3

> <i_ionizer_Tot_Q>
0

> <s_ionizer_Ion_centers>
18_20

> <s_ionizer_Ion_types>
N5_OM

> <s_ionizer_Ion_ctrs_in>
4_6

> <r_ionizer_Ionization_penalty>
0.000779521

> <r_ionizer_Ionization_penalty_charging>
0.000779521

> <r_ionizer_Ionization_penalty_neutral>
0

> <s_st_Chirality_1>
1_S_18_3_2_9

> <i_mmod_Serial_Number-OPLS-2005>
45

> <i_i_glide_lignum>
44

> <r_i_docking_score>
-4.39719

> <r_i_glide_gscore>
-4.39719

> <r_i_glide_lipo>
-0.186398

> <r_i_glide_hbond>
-0.832017

> <r_i_glide_metal>
0

> <r_i_glide_eburp>
-2.5

> <r_i_glide_evdw>
-13.7303

> <r_i_glide_ecoul>
-8.517

> <r_i_glide_erotb>
1.55669

> <r_i_glide_esite>
-0.48534

> <r_i_glide_emodel>
-41.0949

> <r_i_glide_energy>
-22.2473

> <r_i_glide_einternal>
1.69968

> <i_i_glide_confnum>
1

> <i_i_glide_posenum>
626

$$$$
C00986
                    3D
 Structure written by MMmdl.
 17 16  0  0  1  0            999 V2000
    5.7438    0.3095    4.6973 C   0  0  0  0  0  0
    4.3642    0.7789    4.2085 C   0  0  0  0  0  0
    5.8612    0.3222    6.2298 C   0  0  0  0  0  0
    5.9358   -0.6989    4.3273 H   0  0  0  0  0  0
    6.5171    0.9492    4.2691 H   0  0  0  0  0  0
    4.0208    1.6282    4.8005 H   0  0  0  0  0  0
    4.4226    1.1130    3.1719 H   0  0  0  0  0  0
    6.0720    1.3314    6.5857 H   0  0  0  0  0  0
    4.9199    0.0116    6.6849 H   0  0  0  0  0  0
    2.4684    0.0461    3.9726 H   0  0  0  0  0  0
    3.6454   -1.0802    3.7309 H   0  0  0  0  0  0
    6.9797   -0.5429    7.7087 H   0  0  0  0  0  0
    6.7349   -1.5233    6.4081 H   0  0  0  0  0  0
    3.3605   -0.2964    4.3011 N   0  3  0  0  0  0
    3.2678   -0.5961    5.2614 H   0  0  0  0  0  0
    6.9308   -0.5761    6.6999 N   0  3  0  0  0  0
    7.8176   -0.2830    6.3149 H   0  0  0  0  0  0
  1  2  1  0  0  0
  1  3  1  0  0  0
  1  4  1  0  0  0
  1  5  1  0  0  0
  2  6  1  0  0  0
  2  7  1  0  0  0
  2 14  1  0  0  0
  3  8  1  0  0  0
  3  9  1  0  0  0
  3 16  1  0  0  0
 10 14  1  0  0  0
 11 14  1  0  0  0
 12 16  1  0  0  0
 13 16  1  0  0  0
 14 15  1  0  0  0
 16 17  1  0  0  0
M  CHG  2  14   1  16   1
M  END
> <i_ionizer_Ion_state_n>
3

> <i_ionizer_Tot_Q>
2

> <s_ionizer_Ion_centers>
14_16

> <s_ionizer_Ion_types>
N5_N5

> <s_ionizer_Ion_ctrs_in>
4_5

> <r_ionizer_Ionization_penalty>
0.000374662

> <r_ionizer_Ionization_penalty_charging>
0.000374662

> <r_ionizer_Ionization_penalty_neutral>
0

> <i_mmod_Serial_Number-OPLS-2005>
369

> <i_i_glide_lignum>
365

> <r_i_docking_score>
-4.38439

> <r_i_glide_gscore>
-4.38439

> <r_i_glide_lipo>
-0.352881

> <r_i_glide_hbond>
-0.77373

> <r_i_glide_metal>
0

> <r_i_glide_eburp>
-2.5

> <r_i_glide_evdw>
-5.97902

> <r_i_glide_ecoul>
-9.13473

> <r_i_glide_erotb>
0

> <r_i_glide_esite>
0.634019

> <r_i_glide_emodel>
-30.0214

> <r_i_glide_energy>
-15.1137

> <r_i_glide_einternal>
3.47392

> <i_i_glide_confnum>
1

> <i_i_glide_posenum>
134

$$$$
C00075
                    3D
 Structure written by MMmdl.
 40 41  0  0  1  0            999 V2000
    3.0027   -0.1797    0.9242 C   0  0  2  0  0  0
    4.4226   -0.2990    0.4167 N   0  0  0  0  0  0
    2.5742    1.1426    0.7636 O   0  0  0  0  0  0
    2.9451   -0.5273    2.4162 C   0  0  1  0  0  0
    5.2567    0.8388    0.4211 C   0  0  0  0  0  0
    4.9052   -1.4926   -0.1056 C   0  0  0  0  0  0
    2.1678    1.6997    2.0145 C   0  0  1  0  0  0
    2.9069    0.8525    3.0484 C   0  0  1  0  0  0
    1.7881   -1.2833    2.7220 O   0  0  0  0  0  0
    6.5453    0.6835   -0.0909 N   0  0  0  0  0  0
    4.8930    1.9358    0.8428 O   0  0  0  0  0  0
    6.1543   -1.6305   -0.6070 C   0  0  0  0  0  0
    2.5462    3.1875    2.0373 C   0  0  0  0  0  0
    2.3283    0.8453    4.3405 O   0  0  0  0  0  0
    7.0733   -0.4978   -0.6187 C   0  0  0  0  0  0
    2.1009    3.8301    0.8613 O   0  0  0  0  0  0
    8.2269   -0.5221   -1.0425 O   0  0  0  0  0  0
    1.9652    5.5238    0.7741 P   0  0  0  0  0  0
    0.9153    6.0040    2.0306 O   0  0  0  0  0  0
    3.3044    6.0981    1.0393 O   0  0  0  0  0  0
   -0.4049    5.3643    2.9028 P   0  0  0  0  0  0
   -1.0901    6.6691    3.7521 O   0  0  0  0  0  0
   -1.4221    4.8744    1.9428 O   0  0  0  0  0  0
   -2.2528    8.0244    3.7040 P   0  0  0  0  0  0
   -2.3714    8.4268    5.1906 O   0  0  0  0  0  0
    2.3895   -0.8295    0.2986 H   0  0  0  0  0  0
    3.8233   -1.0952    2.7273 H   0  0  0  0  0  0
    4.2702   -2.3635   -0.1261 H   0  0  0  0  0  0
    1.0905    1.5679    2.1251 H   0  0  0  0  0  0
    3.9207    1.2293    3.1294 H   0  0  0  0  0  0
    1.7815   -1.4137    3.6592 H   0  0  0  0  0  0
    7.1436    1.4956   -0.0889 H   0  0  0  0  0  0
    6.4715   -2.5851   -1.0022 H   0  0  0  0  0  0
    2.1014    3.6771    2.9008 H   0  0  0  0  0  0
    3.6258    3.3064    2.1291 H   0  0  0  0  0  0
    2.8092    0.2067    4.8596 H   0  0  0  0  0  0
    1.2969    5.8408   -0.5087 O   0  5  0  0  0  0
    0.1420    4.4145    3.9000 O   0  5  0  0  0  0
   -1.5418    9.0366    2.7765 O   0  5  0  0  0  0
   -3.4981    7.3395    3.0955 O   0  5  0  0  0  0
  1  2  1  0  0  0
  1  3  1  0  0  0
  1  4  1  0  0  0
  1 26  1  0  0  0
  2  5  1  0  0  0
  2  6  1  0  0  0
  3  7  1  0  0  0
  4  8  1  0  0  0
  4  9  1  0  0  0
  4 27  1  0  0  0
  5 10  1  0  0  0
  5 11  2  0  0  0
  6 12  2  0  0  0
  6 28  1  0  0  0
  7 13  1  0  0  0
  7  8  1  0  0  0
  7 29  1  0  0  0
  8 14  1  0  0  0
  8 30  1  0  0  0
  9 31  1  0  0  0
 10 15  1  0  0  0
 10 32  1  0  0  0
 12 15  1  0  0  0
 12 33  1  0  0  0
 13 16  1  0  0  0
 13 34  1  0  0  0
 13 35  1  0  0  0
 14 36  1  0  0  0
 15 17  2  0  0  0
 16 18  1  0  0  0
 18 19  1  0  0  0
 18 20  2  0  0  0
 18 37  1  0  0  0
 19 21  1  0  0  0
 21 22  1  0  0  0
 21 23  2  0  0  0
 21 38  1  0  0  0
 22 24  1  0  0  0
 24 25  2  0  0  0
 24 39  1  0  0  0
 24 40  1  0  0  0
M  CHG  4  37  -1  38  -1  39  -1  40  -1
M  END
> <i_ionizer_Ion_state_n>
15

> <i_ionizer_Tot_Q>
-4

> <s_ionizer_Ion_centers>
37_38_39_40

> <s_ionizer_Ion_types>
OM_OM_OM_OM

> <s_ionizer_Ion_ctrs_in>
20_24_27_28

> <r_ionizer_Ionization_penalty>
2.98356e-05

> <r_ionizer_Ionization_penalty_charging>
2.98356e-05

> <r_ionizer_Ionization_penalty_neutral>
0

> <s_st_Chirality_1>
1_R_3_2_4_26

> <s_st_Chirality_2>
4_R_9_1_8_27

> <s_st_Chirality_3>
7_R_3_8_13_29

> <s_st_Chirality_4>
8_R_14_4_7_30

> <i_mmod_Serial_Number-OPLS-2005>
52

> <i_i_glide_lignum>
51

> <r_i_docking_score>
-4.37134

> <r_i_glide_gscore>
-4.37134

> <r_i_glide_lipo>
-0.749198

> <r_i_glide_hbond>
-0.874994

> <r_i_glide_metal>
0

> <r_i_glide_eburp>
-0.150653

> <r_i_glide_evdw>
-34.8057

> <r_i_glide_ecoul>
3.06836

> <r_i_glide_erotb>
0.703718

> <r_i_glide_esite>
-0.82259

> <r_i_glide_emodel>
-58.2288

> <r_i_glide_energy>
-31.7373

> <r_i_glide_einternal>
4.90585

> <i_i_glide_confnum>
158

> <i_i_glide_posenum>
172

$$$$
C06178
                    3D
 Structure written by MMmdl.
 16 16  0  0  1  0            999 V2000
    5.2499    0.8417    5.0683 N   0  3  0  0  0  0
    4.0796    0.1274    4.5673 C   0  0  0  0  0  0
    5.3001    2.0730    4.7020 C   0  0  0  0  0  0
    6.2387    0.1399    5.9049 C   0  0  0  0  0  0
    3.2696    1.2036    3.8313 C   0  0  0  0  0  0
    4.1452    2.4712    3.8500 C   0  0  0  0  0  0
    4.4300   -0.6657    3.9051 H   0  0  0  0  0  0
    3.5455   -0.3000    5.4172 H   0  0  0  0  0  0
    6.1171    2.7217    4.9966 H   0  0  0  0  0  0
    7.0459    0.8217    6.1780 H   0  0  0  0  0  0
    5.7350   -0.2202    6.8026 H   0  0  0  0  0  0
    6.6367   -0.6999    5.3343 H   0  0  0  0  0  0
    3.0307    0.8968    2.8124 H   0  0  0  0  0  0
    2.3266    1.3864    4.3481 H   0  0  0  0  0  0
    3.6245    3.3235    4.2875 H   0  0  0  0  0  0
    4.4958    2.7414    2.8535 H   0  0  0  0  0  0
  1  2  1  0  0  0
  1  3  2  0  0  0
  1  4  1  0  0  0
  2  5  1  0  0  0
  2  7  1  0  0  0
  2  8  1  0  0  0
  3  6  1  0  0  0
  3  9  1  0  0  0
  4 10  1  0  0  0
  4 11  1  0  0  0
  4 12  1  0  0  0
  5  6  1  0  0  0
  5 13  1  0  0  0
  5 14  1  0  0  0
  6 15  1  0  0  0
  6 16  1  0  0  0
M  CHG  1   1   1
M  END
> <i_ionizer_Ion_state_n>
0

> <i_ionizer_Tot_Q>
1

> <s_ionizer_Ion_centers>


> <s_ionizer_Ion_types>


> <s_ionizer_Ion_ctrs_in>


> <r_ionizer_Ionization_penalty>
0

> <r_ionizer_Ionization_penalty_charging>
0

> <r_ionizer_Ionization_penalty_neutral>
0

> <s_st_EZ_1>
2_1_3_6_Z

> <i_mmod_Serial_Number-OPLS-2005>
862

> <i_i_glide_lignum>
850

> <r_i_docking_score>
-4.36116

> <r_i_glide_gscore>
-4.36116

> <r_i_glide_lipo>
-0.408693

> <r_i_glide_hbond>
0

> <r_i_glide_metal>
0

> <r_i_glide_eburp>
-2.5

> <r_i_glide_evdw>
-9.62298

> <r_i_glide_ecoul>
-2.7356

> <r_i_glide_erotb>
0

> <r_i_glide_esite>
-0.409073

> <r_i_glide_emodel>
-19.0736

> <r_i_glide_energy>
-12.3586

> <r_i_glide_einternal>
0

> <i_i_glide_confnum>
1

> <i_i_glide_posenum>
427

$$$$
C05801
                    3D
 Structure written by MMmdl.
 92 92  0  0  1  0            999 V2000
   -8.4961   10.2100    9.6197 C   0  0  0  0  0  0
   -7.1148   10.2765   10.2469 C   0  0  0  0  0  0
   -6.7689    9.9418   11.5071 C   0  0  0  0  0  0
   -5.3236   10.0355   11.9722 C   0  0  0  0  0  0
   -7.7495    9.4487   12.5607 C   0  0  0  0  0  0
   -4.3944   10.6530   10.9158 C   0  0  0  0  0  0
   -5.7168   10.1699    6.3161 C   0  0  0  0  0  0
   -6.7557   10.3805    7.4050 C   0  0  0  0  0  0
   -7.7416   11.3011    7.4442 C   0  0  0  0  0  0
   -8.7187   11.3460    8.6096 C   0  0  0  0  0  0
   -7.9871   12.3492    6.3683 C   0  0  0  0  0  0
   -2.7832    7.9469    4.0493 C   0  0  0  0  0  0
   -3.6572    8.7926    4.9586 C   0  0  0  0  0  0
   -3.2731    9.4971    6.0431 C   0  0  0  0  0  0
   -4.2873   10.2711    6.8719 C   0  0  0  0  0  0
   -1.8377    9.5875    6.5394 C   0  0  0  0  0  0
   -0.1437    5.7770    1.4111 C   0  0  0  0  0  0
   -1.1266    6.6559    2.1668 C   0  0  0  0  0  0
   -1.8269    7.7105    1.6993 C   0  0  0  0  0  0
   -2.7501    8.4993    2.6160 C   0  0  0  0  0  0
   -1.7693    8.2187    0.2659 C   0  0  0  0  0  0
    2.6629    2.4316    0.9222 C   0  0  0  0  0  0
    1.8162    3.6228    1.3305 C   0  0  0  0  0  0
    2.2479    4.8915    1.4703 C   0  0  0  0  0  0
    1.2995    6.0049    1.8881 C   0  0  0  0  0  0
    3.6888    5.3178    1.2333 C   0  0  0  0  0  0
   -3.0038   10.9087   11.4702 C   0  0  0  0  0  0
   -1.8198   10.6875   10.8628 C   0  0  0  0  0  0
   -0.5118   11.0284   11.5502 C   0  0  0  0  0  0
   -1.6527   10.0995    9.4711 C   0  0  0  0  0  0
    2.7298    1.3479    1.9865 C   0  0  0  0  0  0
    3.6475    1.4347    3.0603 C   0  0  0  0  0  0
    1.8598    0.2398    1.9045 C   0  0  0  0  0  0
    3.6902    0.4175    4.0379 C   0  0  0  0  0  0
    4.4987    2.4976    3.1693 O   0  0  0  0  0  0
    1.9043   -0.7737    2.8808 C   0  0  0  0  0  0
    2.8190   -0.6857    3.9470 C   0  0  0  0  0  0
    4.5755    0.4999    5.0754 O   0  0  0  0  0  0
   -9.2729   10.2133   10.3816 H   0  0  0  0  0  0
   -8.5833    9.2474    9.1147 H   0  0  0  0  0  0
   -6.3433   10.6352    9.5808 H   0  0  0  0  0  0
   -5.2719   10.6259   12.8883 H   0  0  0  0  0  0
   -4.9766    9.0356   12.2361 H   0  0  0  0  0  0
   -7.6666    8.3686   12.6817 H   0  0  0  0  0  0
   -7.5313    9.9148   13.5218 H   0  0  0  0  0  0
   -8.7845    9.6877   12.3235 H   0  0  0  0  0  0
   -4.3566   10.0297   10.0253 H   0  0  0  0  0  0
   -4.7989   11.6109   10.5871 H   0  0  0  0  0  0
   -5.8457    9.2096    5.8233 H   0  0  0  0  0  0
   -5.8690   10.9352    5.5544 H   0  0  0  0  0  0
   -6.6700    9.6922    8.2336 H   0  0  0  0  0  0
   -9.7346   11.3014    8.2151 H   0  0  0  0  0  0
   -8.6347   12.3058    9.1215 H   0  0  0  0  0  0
   -7.1225   12.5245    5.7320 H   0  0  0  0  0  0
   -8.8228   12.0529    5.7345 H   0  0  0  0  0  0
   -8.2356   13.3057    6.8289 H   0  0  0  0  0  0
   -1.7759    7.8531    4.4501 H   0  0  0  0  0  0
   -3.1931    6.9364    4.0439 H   0  0  0  0  0  0
   -4.7007    8.8093    4.6786 H   0  0  0  0  0  0
   -3.9917   11.3202    6.9215 H   0  0  0  0  0  0
   -4.2571    9.8994    7.8970 H   0  0  0  0  0  0
   -1.1074    9.3103    5.7815 H   0  0  0  0  0  0
   -1.6089   10.6111    6.8371 H   0  0  0  0  0  0
   -1.6934    8.9425    7.4060 H   0  0  0  0  0  0
   -0.4257    4.7372    1.5798 H   0  0  0  0  0  0
   -0.2022    5.9457    0.3391 H   0  0  0  0  0  0
   -1.2567    6.3790    3.2031 H   0  0  0  0  0  0
   -3.7611    8.4995    2.2060 H   0  0  0  0  0  0
   -2.4269    9.5410    2.6245 H   0  0  0  0  0  0
   -1.3843    7.4838   -0.4374 H   0  0  0  0  0  0
   -2.7697    8.4848   -0.0761 H   0  0  0  0  0  0
   -1.1440    9.1094    0.2046 H   0  0  0  0  0  0
    2.2633    2.0113   -0.0016 H   0  0  0  0  0  0
    3.6732    2.7732    0.6945 H   0  0  0  0  0  0
    0.7757    3.4041    1.5243 H   0  0  0  0  0  0
    1.6782    6.9508    1.4987 H   0  0  0  0  0  0
    1.3104    6.0983    2.9752 H   0  0  0  0  0  0
    4.3531    4.4730    1.0563 H   0  0  0  0  0  0
    3.7562    5.9770    0.3683 H   0  0  0  0  0  0
    4.0675    5.8563    2.1023 H   0  0  0  0  0  0
   -2.9958   11.3154   12.4712 H   0  0  0  0  0  0
    0.0489   11.7513   10.9571 H   0  0  0  0  0  0
   -0.6750   11.4571   12.5396 H   0  0  0  0  0  0
    0.0993   10.1331   11.6670 H   0  0  0  0  0  0
   -1.2770   10.8602    8.7866 H   0  0  0  0  0  0
   -0.9288    9.2847    9.4985 H   0  0  0  0  0  0
   -2.5724    9.6925    9.0569 H   0  0  0  0  0  0
    1.1526    0.1635    1.0915 H   0  0  0  0  0  0
    4.3359    3.1376    2.4923 H   0  0  0  0  0  0
    1.2355   -1.6190    2.8118 H   0  0  0  0  0  0
    2.8477   -1.4666    4.6927 H   0  0  0  0  0  0
    4.7304   -0.3312    5.4975 H   0  0  0  0  0  0
  1 10  1  0  0  0
  1  2  1  0  0  0
  1 39  1  0  0  0
  1 40  1  0  0  0
  2  3  2  0  0  0
  2 41  1  0  0  0
  3  4  1  0  0  0
  3  5  1  0  0  0
  4  6  1  0  0  0
  4 42  1  0  0  0
  4 43  1  0  0  0
  5 44  1  0  0  0
  5 45  1  0  0  0
  5 46  1  0  0  0
  6 27  1  0  0  0
  6 47  1  0  0  0
  6 48  1  0  0  0
  7  8  1  0  0  0
  7 15  1  0  0  0
  7 49  1  0  0  0
  7 50  1  0  0  0
  8  9  2  0  0  0
  8 51  1  0  0  0
  9 11  1  0  0  0
  9 10  1  0  0  0
 10 52  1  0  0  0
 10 53  1  0  0  0
 11 54  1  0  0  0
 11 55  1  0  0  0
 11 56  1  0  0  0
 12 20  1  0  0  0
 12 13  1  0  0  0
 12 57  1  0  0  0
 12 58  1  0  0  0
 13 14  2  0  0  0
 13 59  1  0  0  0
 14 15  1  0  0  0
 14 16  1  0  0  0
 15 60  1  0  0  0
 15 61  1  0  0  0
 16 62  1  0  0  0
 16 63  1  0  0  0
 16 64  1  0  0  0
 17 25  1  0  0  0
 17 18  1  0  0  0
 17 65  1  0  0  0
 17 66  1  0  0  0
 18 19  2  0  0  0
 18 67  1  0  0  0
 19 20  1  0  0  0
 19 21  1  0  0  0
 20 68  1  0  0  0
 20 69  1  0  0  0
 21 70  1  0  0  0
 21 71  1  0  0  0
 21 72  1  0  0  0
 22 23  1  0  0  0
 22 31  1  0  0  0
 22 73  1  0  0  0
 22 74  1  0  0  0
 23 24  2  0  0  0
 23 75  1  0  0  0
 24 25  1  0  0  0
 24 26  1  0  0  0
 25 76  1  0  0  0
 25 77  1  0  0  0
 26 78  1  0  0  0
 26 79  1  0  0  0
 26 80  1  0  0  0
 27 28  2  0  0  0
 27 81  1  0  0  0
 28 29  1  0  0  0
 28 30  1  0  0  0
 29 82  1  0  0  0
 29 83  1  0  0  0
 29 84  1  0  0  0
 30 85  1  0  0  0
 30 86  1  0  0  0
 30 87  1  0  0  0
 31 32  2  0  0  0
 31 33  1  0  0  0
 32 34  1  0  0  0
 32 35  1  0  0  0
 33 36  2  0  0  0
 33 88  1  0  0  0
 34 37  2  0  0  0
 34 38  1  0  0  0
 35 89  1  0  0  0
 36 37  1  0  0  0
 36 90  1  0  0  0
 37 91  1  0  0  0
 38 92  1  0  0  0
M  END
> <i_ionizer_Ion_state_n>
0

> <i_ionizer_Tot_Q>
0

> <s_ionizer_Ion_centers>


> <s_ionizer_Ion_types>


> <s_ionizer_Ion_ctrs_in>


> <r_ionizer_Ionization_penalty>
0.00118438

> <r_ionizer_Ionization_penalty_charging>
0

> <r_ionizer_Ionization_penalty_neutral>
0.00118438

> <s_st_EZ_1>
1_2_3_4_E

> <s_st_EZ_2>
7_8_9_10_E

> <s_st_EZ_3>
12_13_14_15_E

> <s_st_EZ_4>
17_18_19_20_E

> <s_st_EZ_5>
22_23_24_25_E

> <i_mmod_Serial_Number-OPLS-2005>
792

> <i_i_glide_lignum>
783

> <r_i_docking_score>
-4.33463

> <r_i_glide_gscore>
-4.33463

> <r_i_glide_lipo>
-2.08075

> <r_i_glide_hbond>
-0.45

> <r_i_glide_metal>
0

> <r_i_glide_eburp>
0

> <r_i_glide_evdw>
-34.9336

> <r_i_glide_ecoul>
-5.11311

> <r_i_glide_erotb>
1.48255

> <r_i_glide_esite>
0.0195675

> <r_i_glide_emodel>
-56.3153

> <r_i_glide_energy>
-40.0467

> <r_i_glide_einternal>
6.71726

> <i_i_glide_confnum>
8

> <i_i_glide_posenum>
930

$$$$
C04041
                    3D
 Structure written by MMmdl.
 17 16  0  0  1  0            999 V2000
    1.3529    0.9021    4.1641 C   0  0  0  0  0  0
    1.4116    1.9013    2.9958 C   0  0  0  0  0  0
    1.8925   -0.5081    3.8392 C   0  0  2  0  0  0
    0.7355    3.2705    3.2206 C   0  0  0  0  0  0
    1.9467    1.6110    1.9239 O   0  0  0  0  0  0
    3.3429   -0.4591    3.3300 C   0  0  0  0  0  0
    1.1005   -1.0858    2.8188 O   0  0  0  0  0  0
    0.1012    3.4048    4.2913 O   0  0  0  0  0  0
    4.1857    0.0992    4.3174 O   0  0  0  0  0  0
    0.3059    0.8244    4.4597 H   0  0  0  0  0  0
    1.8849    1.3168    5.0218 H   0  0  0  0  0  0
    1.8462   -1.1379    4.7294 H   0  0  0  0  0  0
    3.7002   -1.4510    3.0498 H   0  0  0  0  0  0
    3.4109    0.1698    2.4418 H   0  0  0  0  0  0
    0.2802   -1.3530    3.2059 H   0  0  0  0  0  0
    4.3845   -0.5687    4.9560 H   0  0  0  0  0  0
    0.8842    4.1130    2.3073 O   0  5  0  0  0  0
  1  2  1  0  0  0
  1  3  1  0  0  0
  1 10  1  0  0  0
  1 11  1  0  0  0
  2  4  1  0  0  0
  2  5  2  0  0  0
  3  6  1  0  0  0
  3  7  1  0  0  0
  3 12  1  0  0  0
  4  8  2  0  0  0
  4 17  1  0  0  0
  6  9  1  0  0  0
  6 13  1  0  0  0
  6 14  1  0  0  0
  7 15  1  0  0  0
  9 16  1  0  0  0
M  CHG  1  17  -1
M  END
> <i_ionizer_Ion_state_n>
1

> <i_ionizer_Tot_Q>
-1

> <s_ionizer_Ion_centers>
17

> <s_ionizer_Ion_types>
OM

> <s_ionizer_Ion_ctrs_in>
8

> <r_ionizer_Ionization_penalty>
0.00059219

> <r_ionizer_Ionization_penalty_charging>
0.00059219

> <r_ionizer_Ionization_penalty_neutral>
0

> <s_st_Chirality_1>
3_R_7_6_1_12

> <i_mmod_Serial_Number-OPLS-2005>
576

> <i_i_glide_lignum>
570

> <r_i_docking_score>
-4.32317

> <r_i_glide_gscore>
-4.32317

> <r_i_glide_lipo>
-0.285261

> <r_i_glide_hbond>
-1.40626

> <r_i_glide_metal>
0

> <r_i_glide_eburp>
-2.5

> <r_i_glide_evdw>
-13.3322

> <r_i_glide_ecoul>
-10.3435

> <r_i_glide_erotb>
2.31075

> <r_i_glide_esite>
-0.341475

> <r_i_glide_emodel>
-43.7101

> <r_i_glide_energy>
-23.6757

> <r_i_glide_einternal>
2.48763

> <i_i_glide_confnum>
2

> <i_i_glide_posenum>
138

$$$$
C00234
                    3D
 Structure written by MMmdl.
 55 57  0  0  1  0            999 V2000
   -1.6239   11.0938    4.7028 C   0  0  0  0  0  0
   -1.9219   10.3514    5.7919 C   0  0  0  0  0  0
   -1.5467   10.5144    3.4486 N   0  0  0  0  0  0
   -1.4009   12.5350    4.8533 C   0  0  0  0  0  0
   -2.1283    8.9892    5.7077 N   0  0  0  0  0  0
   -2.0311   10.8926    7.0745 N   0  0  0  0  0  0
   -1.8809    9.1130    3.2017 C   0  0  2  0  0  0
   -1.5223   12.9871    6.1252 N   0  0  0  0  0  0
   -1.1258   13.2987    3.9289 O   0  0  0  0  0  0
   -1.7992    8.2465    4.4963 C   0  0  0  0  0  0
   -1.8356   12.1661    7.2180 C   0  0  0  0  0  0
   -1.0247    8.5409    2.0518 C   0  0  0  0  0  0
   -1.9052   12.8570    8.4097 N   0  0  0  0  0  0
   -1.1844    7.0832    1.8999 N   0  0  0  0  0  0
   -0.0228    6.2462    1.9419 C   0  0  0  0  0  0
   -2.4329    6.5723    1.7868 C   0  0  0  0  0  0
    0.0988    5.2198    2.9089 C   0  0  0  0  0  0
    1.0076    6.4032    0.9863 C   0  0  0  0  0  0
   -2.7253    5.3821    1.9019 O   0  0  0  0  0  0
    1.2304    4.3825    2.9289 C   0  0  0  0  0  0
    2.1397    5.5662    1.0072 C   0  0  0  0  0  0
    2.2665    4.5544    1.9860 C   0  0  0  0  0  0
    3.4581    3.6393    2.0062 C   0  0  0  0  0  0
    3.3074    2.5116    2.7183 N   0  0  0  0  0  0
    4.4719    3.9085    1.3612 O   0  0  0  0  0  0
    4.3806    1.6535    3.2122 C   0  0  2  0  0  0
    3.9439    0.1689    3.2085 C   0  0  0  0  0  0
    4.9190    2.1976    4.5422 C   0  0  0  0  0  0
    2.8255   -0.1891    4.2127 C   0  0  0  0  0  0
    4.9102    3.4376    4.7055 O   0  0  0  0  0  0
    1.4243    0.2238    3.7495 C   0  0  0  0  0  0
    0.8954   -0.4209    2.8164 O   0  0  0  0  0  0
   -1.3649   11.1064    2.6505 H   0  0  0  0  0  0
   -2.3087    8.4640    6.5509 H   0  0  0  0  0  0
   -2.9257    9.1334    2.8894 H   0  0  0  0  0  0
   -1.3781   13.9733    6.2805 H   0  0  0  0  0  0
   -0.7822    7.8749    4.6260 H   0  0  0  0  0  0
   -2.4440    7.3709    4.4160 H   0  0  0  0  0  0
   -1.2872    9.0296    1.1138 H   0  0  0  0  0  0
    0.0154    8.8244    2.2245 H   0  0  0  0  0  0
   -1.7502   13.8504    8.4989 H   0  0  0  0  0  0
   -2.1216   12.4118    9.2898 H   0  0  0  0  0  0
   -3.1803    7.3511    1.5699 H   0  0  0  0  0  0
   -0.6815    5.0577    3.6380 H   0  0  0  0  0  0
    0.9505    7.1708    0.2299 H   0  0  0  0  0  0
    1.2973    3.6053    3.6767 H   0  0  0  0  0  0
    2.9062    5.7092    0.2591 H   0  0  0  0  0  0
    2.3717    2.2201    2.9616 H   0  0  0  0  0  0
    5.2144    1.7352    2.5116 H   0  0  0  0  0  0
    3.6047   -0.0951    2.2055 H   0  0  0  0  0  0
    4.8187   -0.4539    3.4025 H   0  0  0  0  0  0
    2.8238   -1.2663    4.3840 H   0  0  0  0  0  0
    3.0133    0.2821    5.1778 H   0  0  0  0  0  0
    5.3198    1.3588    5.3803 O   0  5  0  0  0  0
    0.9050    1.1989    4.3353 O   0  5  0  0  0  0
  1  2  2  0  0  0
  1  3  1  0  0  0
  1  4  1  0  0  0
  2  5  1  0  0  0
  2  6  1  0  0  0
  3  7  1  0  0  0
  3 33  1  0  0  0
  4  8  1  0  0  0
  4  9  2  0  0  0
  5 10  1  0  0  0
  5 34  1  0  0  0
  6 11  2  0  0  0
  7 12  1  0  0  0
  7 10  1  0  0  0
  7 35  1  0  0  0
  8 11  1  0  0  0
  8 36  1  0  0  0
 10 37  1  0  0  0
 10 38  1  0  0  0
 11 13  1  0  0  0
 12 14  1  0  0  0
 12 39  1  0  0  0
 12 40  1  0  0  0
 13 41  1  0  0  0
 13 42  1  0  0  0
 14 15  1  0  0  0
 14 16  1  0  0  0
 15 17  1  0  0  0
 15 18  2  0  0  0
 16 19  2  0  0  0
 16 43  1  0  0  0
 17 20  2  0  0  0
 17 44  1  0  0  0
 18 21  1  0  0  0
 18 45  1  0  0  0
 20 22  1  0  0  0
 20 46  1  0  0  0
 21 22  2  0  0  0
 21 47  1  0  0  0
 22 23  1  0  0  0
 23 24  1  0  0  0
 23 25  2  0  0  0
 24 26  1  0  0  0
 24 48  1  0  0  0
 26 27  1  0  0  0
 26 28  1  0  0  0
 26 49  1  0  0  0
 27 29  1  0  0  0
 27 50  1  0  0  0
 27 51  1  0  0  0
 28 30  2  0  0  0
 28 54  1  0  0  0
 29 31  1  0  0  0
 29 52  1  0  0  0
 29 53  1  0  0  0
 31 32  2  0  0  0
 31 55  1  0  0  0
M  CHG  2  54  -1  55  -1
M  END
> <i_ionizer_Ion_state_n>
3

> <i_ionizer_Tot_Q>
-2

> <s_ionizer_Ion_centers>
54_55

> <s_ionizer_Ion_types>
OM_OM

> <s_ionizer_Ion_ctrs_in>
30_33

> <r_ionizer_Ionization_penalty>
0.00118438

> <r_ionizer_Ionization_penalty_charging>
0.00118438

> <r_ionizer_Ionization_penalty_neutral>
0

> <s_st_Chirality_1>
7_R_3_12_10_35

> <s_st_Chirality_2>
26_R_24_28_27_49

> <i_mmod_Serial_Number-OPLS-2005>
154

> <i_i_glide_lignum>
152

> <r_i_docking_score>
-4.32294

> <r_i_glide_gscore>
-4.32294

> <r_i_glide_lipo>
-1.1297

> <r_i_glide_hbond>
-0.4529

> <r_i_glide_metal>
0

> <r_i_glide_eburp>
-0.216416

> <r_i_glide_evdw>
-39.1209

> <r_i_glide_ecoul>
-5.81335

> <r_i_glide_erotb>
0.831501

> <r_i_glide_esite>
0.355582

> <r_i_glide_emodel>
-86.9844

> <r_i_glide_energy>
-44.9342

> <r_i_glide_einternal>
11.0745

> <i_i_glide_confnum>
234

> <i_i_glide_posenum>
891

$$$$
C00515
                    3D
 Structure written by MMmdl.
 22 21  0  0  1  0            999 V2000
    2.5647   -0.5146    3.6607 C   0  0  1  0  0  0
    1.3025    0.2579    3.2563 C   0  0  0  0  0  0
    3.7829   -0.0581    2.8251 C   0  0  0  0  0  0
    1.0816    1.3482    3.8301 O   0  0  0  0  0  0
    3.8355   -0.6926    1.4252 C   0  0  0  0  0  0
    5.1914   -0.4750    0.7371 C   0  0  0  0  0  0
    2.3937   -1.5806    3.4993 H   0  0  0  0  0  0
    3.7506    1.0263    2.7025 H   0  0  0  0  0  0
    4.7087   -0.2695    3.3630 H   0  0  0  0  0  0
    1.9756   -0.6271    5.6090 H   0  0  0  0  0  0
    3.6059   -0.8048    5.4042 H   0  0  0  0  0  0
    3.6309   -1.7613    1.4996 H   0  0  0  0  0  0
    3.0436   -0.2672    0.8069 H   0  0  0  0  0  0
    5.3270    0.5789    0.4913 H   0  0  0  0  0  0
    6.0059   -0.7562    1.4057 H   0  0  0  0  0  0
    6.2012   -1.0966   -0.9291 H   0  0  0  0  0  0
    5.2107   -2.2474   -0.2886 H   0  0  0  0  0  0
    2.7855   -0.3010    5.1013 N   0  3  0  0  0  0
    2.9054    0.6880    5.2683 H   0  0  0  0  0  0
    0.5657   -0.2673    2.3940 O   0  5  0  0  0  0
    5.3012   -1.2643   -0.5017 N   0  3  0  0  0  0
    4.5710   -0.9906   -1.1438 H   0  0  0  0  0  0
  1  2  1  0  0  0
  1  3  1  0  0  0
  1  7  1  0  0  0
  1 18  1  0  0  0
  2  4  2  0  0  0
  2 20  1  0  0  0
  3  5  1  0  0  0
  3  8  1  0  0  0
  3  9  1  0  0  0
  5  6  1  0  0  0
  5 12  1  0  0  0
  5 13  1  0  0  0
  6 14  1  0  0  0
  6 15  1  0  0  0
  6 21  1  0  0  0
 10 18  1  0  0  0
 11 18  1  0  0  0
 16 21  1  0  0  0
 17 21  1  0  0  0
 18 19  1  0  0  0
 21 22  1  0  0  0
M  CHG  3  18   1  20  -1  21   1
M  END
> <i_ionizer_Ion_state_n>
7

> <i_ionizer_Tot_Q>
1

> <s_ionizer_Ion_centers>
18_20_21

> <s_ionizer_Ion_types>
N5_OM_N5

> <s_ionizer_Ion_ctrs_in>
4_5_9

> <r_ionizer_Ionization_penalty>
0.000966851

> <r_ionizer_Ionization_penalty_charging>
0.000966851

> <r_ionizer_Ionization_penalty_neutral>
0

> <s_st_Chirality_1>
1_R_18_2_3_7

> <i_mmod_Serial_Number-OPLS-2005>
265

> <i_i_glide_lignum>
263

> <r_i_docking_score>
-4.31948

> <r_i_glide_gscore>
-4.31948

> <r_i_glide_lipo>
-0.361757

> <r_i_glide_hbond>
-1.2301

> <r_i_glide_metal>
0

> <r_i_glide_eburp>
-2.5

> <r_i_glide_evdw>
-10.4371

> <r_i_glide_ecoul>
-9.29564

> <r_i_glide_erotb>
1.80344

> <r_i_glide_esite>
-0.266524

> <r_i_glide_emodel>
-42.2341

> <r_i_glide_energy>
-19.7327

> <r_i_glide_einternal>
1.57346

> <i_i_glide_confnum>
1

> <i_i_glide_posenum>
68

$$$$
C00418
                    3D
 Structure written by MMmdl.
 21 20  0  0  1  0            999 V2000
    1.2496    1.2396    3.9178 C   0  0  0  0  0  0
    1.5225    0.2452    2.7505 C   0  0  2  0  0  0
    0.7872    2.6397    3.4860 C   0  0  0  0  0  0
    2.6745    0.8057    1.8776 C   0  0  0  0  0  0
    0.2472   -0.0171    1.9200 C   0  0  0  0  0  0
    1.9437   -1.0021    3.2767 O   0  0  0  0  0  0
    1.1625    3.0443    2.3633 O   0  0  0  0  0  0
    3.0281   -0.0076    0.6178 C   0  0  0  0  0  0
    4.0496    0.6516   -0.1000 O   0  0  0  0  0  0
    0.4804    0.8319    4.5753 H   0  0  0  0  0  0
    2.1427    1.3438    4.5351 H   0  0  0  0  0  0
    2.4241    1.8233    1.5742 H   0  0  0  0  0  0
    3.5715    0.8940    2.4929 H   0  0  0  0  0  0
    0.4184   -0.7351    1.1187 H   0  0  0  0  0  0
   -0.5581   -0.4262    2.5300 H   0  0  0  0  0  0
   -0.1213    0.9036    1.4667 H   0  0  0  0  0  0
    2.7128   -0.8645    3.8069 H   0  0  0  0  0  0
    3.3745   -1.0077    0.8789 H   0  0  0  0  0  0
    2.1660   -0.1167   -0.0395 H   0  0  0  0  0  0
    4.1140    0.2632   -0.9593 H   0  0  0  0  0  0
    0.0997    3.2959    4.2993 O   0  5  0  0  0  0
  1  2  1  0  0  0
  1  3  1  0  0  0
  1 10  1  0  0  0
  1 11  1  0  0  0
  2  4  1  0  0  0
  2  5  1  0  0  0
  2  6  1  0  0  0
  3  7  2  0  0  0
  3 21  1  0  0  0
  4  8  1  0  0  0
  4 12  1  0  0  0
  4 13  1  0  0  0
  5 14  1  0  0  0
  5 15  1  0  0  0
  5 16  1  0  0  0
  6 17  1  0  0  0
  8  9  1  0  0  0
  8 18  1  0  0  0
  8 19  1  0  0  0
  9 20  1  0  0  0
M  CHG  1  21  -1
M  END
> <i_ionizer_Ion_state_n>
1

> <i_ionizer_Tot_Q>
-1

> <s_ionizer_Ion_centers>
21

> <s_ionizer_Ion_types>
OM

> <s_ionizer_Ion_ctrs_in>
7

> <r_ionizer_Ionization_penalty>
0.00059219

> <r_ionizer_Ionization_penalty_charging>
0.00059219

> <r_ionizer_Ionization_penalty_neutral>
0

> <s_st_Chirality_1>
2_R_6_1_4_5

> <i_mmod_Serial_Number-OPLS-2005>
231

> <i_i_glide_lignum>
229

> <r_i_docking_score>
-4.3095

> <r_i_glide_gscore>
-4.3095

> <r_i_glide_lipo>
-0.446013

> <r_i_glide_hbond>
-1.15

> <r_i_glide_metal>
0

> <r_i_glide_eburp>
-2.5

> <r_i_glide_evdw>
-12.6819

> <r_i_glide_ecoul>
-9.64801

> <r_i_glide_erotb>
2.30966

> <r_i_glide_esite>
-0.543794

> <r_i_glide_emodel>
-41.6491

> <r_i_glide_energy>
-22.3299

> <r_i_glide_einternal>
0.861848

> <i_i_glide_confnum>
17

> <i_i_glide_posenum>
47

$$$$
C04392
                    3D
 Structure written by MMmdl.
 78 83  0  0  1  0            999 V2000
   -2.2109   12.0529    9.3932 N   0  0  0  0  0  0
   -3.0614   11.3848   10.2623 C   0  0  0  0  0  0
   -2.5552   13.1580    8.4426 C   0  0  2  0  0  0
   -1.0199   11.4457    9.5880 C   0  0  0  0  0  0
   -2.3368   10.4467   10.9249 C   0  0  0  0  0  0
   -4.3804   11.6053   10.4469 N   0  0  0  0  0  0
   -2.8398   12.5834    7.1977 O   0  0  0  0  0  0
   -1.3361   14.0651    8.2480 C   0  0  1  0  0  0
   -1.0170   10.4628   10.4921 N   0  0  0  0  0  0
   -3.0446    9.6159   11.9338 C   0  0  0  0  0  0
   -5.0704   10.8675   11.3569 C   0  0  0  0  0  0
   -1.7888   12.8346    6.2622 C   0  0  1  0  0  0
   -0.6287   13.3746    7.0977 C   0  0  1  0  0  0
   -1.7292   15.3885    7.9425 O   0  0  0  0  0  0
   -4.3685    9.9155   12.0498 N   0  0  0  0  0  0
   -2.4900    8.7457   12.6024 O   0  0  0  0  0  0
   -6.2701   11.0451   11.5491 O   0  0  0  0  0  0
   -1.4587   11.5621    5.4725 C   0  0  0  0  0  0
    0.2354   14.2472    6.3951 O   0  0  0  0  0  0
   -0.8149   10.6427    6.3307 O   0  0  0  0  0  0
   -1.5060    9.1335    6.7014 P   0  0  0  0  0  0
   -1.8306    8.4079    5.1992 O   0  0  0  0  0  0
   -0.4884    8.3187    7.4037 O   0  0  0  0  0  0
   -3.0020    8.5655    3.9797 P   0  0  0  0  0  0
   -2.2458    8.1768    2.5187 O   0  0  0  0  0  0
   -4.0576    7.5435    4.1771 O   0  0  0  0  0  0
   -1.5121    6.7847    1.8960 P   0  0  0  0  0  0
   -0.1193    6.6173    2.8494 O   0  0  0  0  0  0
   -2.4183    5.6380    2.1324 O   0  0  0  0  0  0
    0.5602    5.3629    3.7689 P   0  0  0  0  0  0
    2.0212    5.0483    2.9589 O   0  0  0  0  0  0
    0.8984    5.9032    5.1057 O   0  0  0  0  0  0
    2.1002    5.1620    1.5529 C   0  0  0  0  0  0
    3.2301    4.2753    1.0138 C   0  0  1  0  0  0
    3.9954    3.7393    2.0931 O   0  0  0  0  0  0
    2.7240    3.0510    0.2468 C   0  0  2  0  0  0
    4.2711    2.3827    1.9059 C   0  0  2  0  0  0
    3.8154    2.0180    0.4895 C   0  0  2  0  0  0
    2.5003    3.3044   -1.1275 O   0  0  0  0  0  0
    3.4781    1.6111    2.9128 N   0  0  0  0  0  0
    4.8907    2.1002   -0.4284 O   0  0  0  0  0  0
    2.3132    0.9013    2.7777 C   0  0  0  0  0  0
    3.8139    1.3555    4.2134 C   0  0  0  0  0  0
    2.0103    0.2759    3.9531 C   0  0  0  0  0  0
    1.4923    0.7085    1.6463 N   0  0  0  0  0  0
    0.8146   -0.6109    4.0426 C   0  0  0  0  0  0
    0.4052   -0.1043    1.6875 C   0  0  0  0  0  0
    0.1188   -0.7082    2.8803 N   0  0  0  0  0  0
    0.5078   -1.1946    5.0791 O   0  0  0  0  0  0
   -0.2921   -0.2889    0.6940 O   0  0  0  0  0  0
   -3.4226   13.6422    8.8926 H   0  0  0  0  0  0
   -0.1260   11.7230    9.0491 H   0  0  0  0  0  0
   -4.8442   12.3244    9.9099 H   0  0  0  0  0  0
   -0.7099   14.0977    9.1402 H   0  0  0  0  0  0
   -2.1532   13.6096    5.5859 H   0  0  0  0  0  0
   -0.0544   12.5420    7.4994 H   0  0  0  0  0  0
   -2.4234   15.3343    7.3014 H   0  0  0  0  0  0
   -4.8925    9.3772   12.7235 H   0  0  0  0  0  0
   -2.3528   11.1180    5.0362 H   0  0  0  0  0  0
   -0.7852   11.8065    4.6508 H   0  0  0  0  0  0
    1.0850   14.2232    6.8196 H   0  0  0  0  0  0
    1.1461    4.8887    1.1006 H   0  0  0  0  0  0
    2.2869    6.2069    1.3035 H   0  0  0  0  0  0
    3.9054    4.8559    0.3833 H   0  0  0  0  0  0
    1.7969    2.6918    0.6968 H   0  0  0  0  0  0
    5.3075    2.1354    2.1351 H   0  0  0  0  0  0
    3.4240    1.0008    0.4512 H   0  0  0  0  0  0
    3.2723    3.7144   -1.4857 H   0  0  0  0  0  0
    5.2916    1.2482   -0.5058 H   0  0  0  0  0  0
    4.7116    1.7457    4.6579 H   0  0  0  0  0  0
    1.7508    1.1497    0.7757 H   0  0  0  0  0  0
   -0.6948   -1.3049    2.8953 H   0  0  0  0  0  0
   -2.8033    9.3906    7.3665 O   0  5  0  0  0  0
   -3.4063    9.9863    3.9042 O   0  5  0  0  0  0
   -1.1052    7.1224    0.5124 O   0  5  0  0  0  0
   -0.3002    4.1635    3.6634 O   0  5  0  0  0  0
    2.9724    0.5641    4.8816 N   0  3  0  0  0  0
    3.0677    0.2124    5.8336 H   0  0  0  0  0  0
  1  2  1  0  0  0
  1  3  1  0  0  0
  1  4  1  0  0  0
  2  5  2  0  0  0
  2  6  1  0  0  0
  3  7  1  0  0  0
  3  8  1  0  0  0
  3 51  1  0  0  0
  4  9  2  0  0  0
  4 52  1  0  0  0
  5 10  1  0  0  0
  5  9  1  0  0  0
  6 11  1  0  0  0
  6 53  1  0  0  0
  7 12  1  0  0  0
  8 13  1  0  0  0
  8 14  1  0  0  0
  8 54  1  0  0  0
 10 15  1  0  0  0
 10 16  2  0  0  0
 11 17  2  0  0  0
 11 15  1  0  0  0
 12 18  1  0  0  0
 12 13  1  0  0  0
 12 55  1  0  0  0
 13 19  1  0  0  0
 13 56  1  0  0  0
 14 57  1  0  0  0
 15 58  1  0  0  0
 18 20  1  0  0  0
 18 59  1  0  0  0
 18 60  1  0  0  0
 19 61  1  0  0  0
 20 21  1  0  0  0
 21 22  1  0  0  0
 21 23  2  0  0  0
 21 73  1  0  0  0
 22 24  1  0  0  0
 24 25  1  0  0  0
 24 26  2  0  0  0
 24 74  1  0  0  0
 25 27  1  0  0  0
 27 28  1  0  0  0
 27 29  2  0  0  0
 27 75  1  0  0  0
 28 30  1  0  0  0
 30 31  1  0  0  0
 30 32  2  0  0  0
 30 76  1  0  0  0
 31 33  1  0  0  0
 33 34  1  0  0  0
 33 62  1  0  0  0
 33 63  1  0  0  0
 34 35  1  0  0  0
 34 36  1  0  0  0
 34 64  1  0  0  0
 35 37  1  0  0  0
 36 38  1  0  0  0
 36 39  1  0  0  0
 36 65  1  0  0  0
 37 40  1  0  0  0
 37 38  1  0  0  0
 37 66  1  0  0  0
 38 41  1  0  0  0
 38 67  1  0  0  0
 39 68  1  0  0  0
 40 42  1  0  0  0
 40 43  1  0  0  0
 41 69  1  0  0  0
 42 44  2  0  0  0
 42 45  1  0  0  0
 43 70  1  0  0  0
 43 77  2  0  0  0
 44 46  1  0  0  0
 44 77  1  0  0  0
 45 47  1  0  0  0
 45 71  1  0  0  0
 46 48  1  0  0  0
 46 49  2  0  0  0
 47 50  2  0  0  0
 47 48  1  0  0  0
 48 72  1  0  0  0
 77 78  1  0  0  0
M  CHG  5  73  -1  74  -1  75  -1  76  -1  77   1
M  END
> <i_ionizer_Ion_state_n>
62

> <i_ionizer_Tot_Q>
-3

> <s_ionizer_Ion_centers>
73_74_75_76_77

> <s_ionizer_Ion_types>
OM_OM_OM_OM_N4

> <s_ionizer_Ion_ctrs_in>
23_27_31_35_50

> <r_ionizer_Ionization_penalty>
0.82139

> <r_ionizer_Ionization_penalty_charging>
0.41071

> <r_ionizer_Ionization_penalty_neutral>
0.41068

> <s_st_Chirality_1>
3_R_7_1_8_51

> <s_st_Chirality_2>
8_R_14_3_13_54

> <s_st_Chirality_3>
12_R_7_13_18_55

> <s_st_Chirality_4>
13_R_19_8_12_56

> <s_st_Chirality_5>
34_R_35_36_33_64

> <s_st_Chirality_6>
36_R_39_38_34_65

> <s_st_Chirality_7>
37_R_35_40_38_66

> <s_st_Chirality_8>
38_R_41_37_36_67

> <i_mmod_Serial_Number-OPLS-2005>
595

> <i_i_glide_lignum>
589

> <r_i_docking_score>
-4.30741

> <r_i_glide_gscore>
-4.30741

> <r_i_glide_lipo>
-0.727573

> <r_i_glide_hbond>
-2.24798

> <r_i_glide_metal>
0

> <r_i_glide_eburp>
0.247975

> <r_i_glide_evdw>
-4.67881

> <r_i_glide_ecoul>
-9.22592

> <r_i_glide_erotb>
0.222033

> <r_i_glide_esite>
-0.50497

> <r_i_glide_emodel>
-18.6881

> <r_i_glide_energy>
-13.9047

> <r_i_glide_einternal>
18.4062

> <i_i_glide_confnum>
408

> <i_i_glide_posenum>
92

$$$$
C02946
                    3D
 Structure written by MMmdl.
 20 19  0  0  1  0            999 V2000
    0.8035    2.3793    3.4996 C   0  0  0  0  0  0
    1.1302    1.2240    4.4544 C   0  0  0  0  0  0
    1.2484    2.3383    2.3307 O   0  0  0  0  0  0
    1.4994   -0.0821    3.7239 C   0  0  0  0  0  0
    2.8675    0.0035    3.0347 C   0  0  0  0  0  0
    3.9333    0.0994    4.0222 N   0  0  0  0  0  0
    4.6079    1.2233    4.3005 C   0  0  0  0  0  0
    5.7127    1.1072    5.3448 C   0  0  0  0  0  0
    4.3761    2.3056    3.7632 O   0  0  0  0  0  0
    1.9524    1.5347    5.0997 H   0  0  0  0  0  0
    0.2670    1.0582    5.0997 H   0  0  0  0  0  0
    1.5062   -0.9107    4.4341 H   0  0  0  0  0  0
    0.7361   -0.3149    2.9796 H   0  0  0  0  0  0
    3.0293   -0.8778    2.4118 H   0  0  0  0  0  0
    2.9027    0.8744    2.3782 H   0  0  0  0  0  0
    4.1723   -0.7427    4.5253 H   0  0  0  0  0  0
    6.2004    2.0700    5.5008 H   0  0  0  0  0  0
    5.3023    0.7741    6.2984 H   0  0  0  0  0  0
    6.4681    0.3903    5.0224 H   0  0  0  0  0  0
    0.1001    3.3002    3.9686 O   0  5  0  0  0  0
  1  2  1  0  0  0
  1  3  2  0  0  0
  1 20  1  0  0  0
  2  4  1  0  0  0
  2 10  1  0  0  0
  2 11  1  0  0  0
  4  5  1  0  0  0
  4 12  1  0  0  0
  4 13  1  0  0  0
  5  6  1  0  0  0
  5 14  1  0  0  0
  5 15  1  0  0  0
  6  7  1  0  0  0
  6 16  1  0  0  0
  7  8  1  0  0  0
  7  9  2  0  0  0
  8 17  1  0  0  0
  8 18  1  0  0  0
  8 19  1  0  0  0
M  CHG  1  20  -1
M  END
> <i_ionizer_Ion_state_n>
1

> <i_ionizer_Tot_Q>
-1

> <s_ionizer_Ion_centers>
20

> <s_ionizer_Ion_types>
OM

> <s_ionizer_Ion_ctrs_in>
3

> <r_ionizer_Ionization_penalty>
0.00059219

> <r_ionizer_Ionization_penalty_charging>
0.00059219

> <r_ionizer_Ionization_penalty_neutral>
0

> <i_mmod_Serial_Number-OPLS-2005>
517

> <i_i_glide_lignum>
511

> <r_i_docking_score>
-4.29812

> <r_i_glide_gscore>
-4.29812

> <r_i_glide_lipo>
-0.393386

> <r_i_glide_hbond>
-1.15

> <r_i_glide_metal>
0

> <r_i_glide_eburp>
-2.5

> <r_i_glide_evdw>
-18.1661

> <r_i_glide_ecoul>
-5.27516

> <r_i_glide_erotb>
2.38672

> <r_i_glide_esite>
-0.660646

> <r_i_glide_emodel>
-44.6249

> <r_i_glide_energy>
-23.4412

> <r_i_glide_einternal>
2.09915

> <i_i_glide_confnum>
17

> <i_i_glide_posenum>
285

$$$$
C05290
                    3D
 Structure written by MMmdl.
 48 51  0  0  1  0            999 V2000
    2.2883    5.0196    1.6431 C   0  0  2  0  0  0
    2.2213    3.4570    1.6798 C   0  0  2  0  0  0
    1.0575    5.5824    2.3820 C   0  0  0  0  0  0
    2.2786    5.4501    0.1477 C   0  0  0  0  0  0
    3.5896    5.5110    2.3357 C   0  0  0  0  0  0
    2.0065    2.8874    3.1143 C   0  0  2  0  0  0
    3.4044    2.7596    0.9445 C   0  0  0  0  0  0
    0.8149    5.0133    3.7690 C   0  0  0  0  0  0
    0.2172    6.5062    1.8703 C   0  0  0  0  0  0
    1.7866    6.8791   -0.1207 C   0  0  0  0  0  0
    3.6807    5.1147    3.6893 O   0  0  0  0  0  0
    1.9152    1.3566    3.0148 C   0  0  1  0  0  0
    0.7387    3.4864    3.7364 C   0  0  0  0  0  0
    3.3319    1.2168    0.9837 C   0  0  0  0  0  0
    0.4426    7.1224    0.5568 C   0  0  0  0  0  0
    3.1892    0.7342    2.4346 C   0  0  2  0  0  0
    1.5929    0.5176    4.2576 C   0  0  0  0  0  0
   -0.3903    7.8402    0.0076 O   0  0  0  0  0  0
    2.8485   -0.7381    2.6234 C   0  0  0  0  0  0
    4.4693    1.0293    3.2501 C   0  0  0  0  0  0
    1.9146   -0.9234    3.8171 C   0  0  0  0  0  0
    3.2710   -1.6543    1.9206 O   0  0  0  0  0  0
    1.3262    3.1801    1.1208 H   0  0  0  0  0  0
    2.8510    3.1521    3.7488 H   0  0  0  0  0  0
    1.1046    1.1556    2.3108 H   0  0  0  0  0  0
    3.2710    5.3224   -0.2851 H   0  0  0  0  0  0
    1.6264    4.7765   -0.4096 H   0  0  0  0  0  0
    4.4696    5.1257    1.8221 H   0  0  0  0  0  0
    3.6585    6.5979    2.2998 H   0  0  0  0  0  0
    3.4378    3.0769   -0.0972 H   0  0  0  0  0  0
    4.3496    3.0745    1.3841 H   0  0  0  0  0  0
    1.6255    5.3309    4.4250 H   0  0  0  0  0  0
   -0.1053    5.4237    4.1857 H   0  0  0  0  0  0
   -0.6375    6.8435    2.4382 H   0  0  0  0  0  0
    2.5019    7.6143    0.2451 H   0  0  0  0  0  0
    1.6862    7.0437   -1.1938 H   0  0  0  0  0  0
    4.4626    5.4927    4.0612 H   0  0  0  0  0  0
   -0.1361    3.1768    3.1636 H   0  0  0  0  0  0
    0.6014    3.1067    4.7490 H   0  0  0  0  0  0
    2.4832    0.8739    0.3907 H   0  0  0  0  0  0
    4.2251    0.7896    0.5270 H   0  0  0  0  0  0
    2.2245    0.8108    5.0966 H   0  0  0  0  0  0
    0.5524    0.6271    4.5640 H   0  0  0  0  0  0
    4.6701    2.0968    3.3289 H   0  0  0  0  0  0
    5.3396    0.5712    2.7793 H   0  0  0  0  0  0
    4.4039    0.6365    4.2652 H   0  0  0  0  0  0
    2.3886   -1.5001    4.6113 H   0  0  0  0  0  0
    1.0153   -1.4460    3.4906 H   0  0  0  0  0  0
  1  2  1  0  0  0
  1  3  1  0  0  0
  1  4  1  0  0  0
  1  5  1  0  0  0
  2  6  1  0  0  0
  2  7  1  0  0  0
  2 23  1  0  0  0
  3  8  1  0  0  0
  3  9  2  0  0  0
  4 10  1  0  0  0
  4 26  1  0  0  0
  4 27  1  0  0  0
  5 11  1  0  0  0
  5 28  1  0  0  0
  5 29  1  0  0  0
  6 12  1  0  0  0
  6 13  1  0  0  0
  6 24  1  0  0  0
  7 14  1  0  0  0
  7 30  1  0  0  0
  7 31  1  0  0  0
  8 13  1  0  0  0
  8 32  1  0  0  0
  8 33  1  0  0  0
  9 15  1  0  0  0
  9 34  1  0  0  0
 10 15  1  0  0  0
 10 35  1  0  0  0
 10 36  1  0  0  0
 11 37  1  0  0  0
 12 16  1  0  0  0
 12 17  1  0  0  0
 12 25  1  0  0  0
 13 38  1  0  0  0
 13 39  1  0  0  0
 14 16  1  0  0  0
 14 40  1  0  0  0
 14 41  1  0  0  0
 15 18  2  0  0  0
 16 19  1  0  0  0
 16 20  1  0  0  0
 17 21  1  0  0  0
 17 42  1  0  0  0
 17 43  1  0  0  0
 19 22  2  0  0  0
 19 21  1  0  0  0
 20 44  1  0  0  0
 20 45  1  0  0  0
 20 46  1  0  0  0
 21 47  1  0  0  0
 21 48  1  0  0  0
M  END
> <i_ionizer_Ion_state_n>
0

> <i_ionizer_Tot_Q>
0

> <s_ionizer_Ion_centers>


> <s_ionizer_Ion_types>


> <s_ionizer_Ion_ctrs_in>


> <r_ionizer_Ionization_penalty>
0

> <r_ionizer_Ionization_penalty_charging>
0

> <r_ionizer_Ionization_penalty_neutral>
0

> <s_st_Chirality_1>
1_S_5_3_2_4

> <s_st_Chirality_2>
2_S_1_6_7_23

> <s_st_Chirality_3>
6_R_12_2_13_24

> <s_st_Chirality_4>
12_S_16_6_17_25

> <s_st_Chirality_5>
16_S_19_12_14_20

> <s_st_EZ_1>
1_3_9_15_Z

> <i_mmod_Serial_Number-OPLS-2005>
666

> <i_i_glide_lignum>
659

> <r_i_docking_score>
-4.28771

> <r_i_glide_gscore>
-4.28771

> <r_i_glide_lipo>
-1.56901

> <r_i_glide_hbond>
0

> <r_i_glide_metal>
0

> <r_i_glide_eburp>
-1.49684

> <r_i_glide_evdw>
-13.0233

> <r_i_glide_ecoul>
1.15592

> <r_i_glide_erotb>
0.230078

> <r_i_glide_esite>
-0.525669

> <r_i_glide_emodel>
-11.1209

> <r_i_glide_energy>
-11.8674

> <r_i_glide_einternal>
6.36285

> <i_i_glide_confnum>
2

> <i_i_glide_posenum>
370

$$$$
C00379
                    3D
 Structure written by MMmdl.
 22 21  0  0  1  0            999 V2000
    3.1027    0.4229    4.4462 C   0  0  0  0  0  0
    4.1026    1.5989    4.6066 C   0  0  1  0  0  0
    1.8518    0.7593    3.5933 C   0  0  1  0  0  0
    3.7866   -0.6918    3.8983 O   0  0  0  0  0  0
    5.5226    1.1421    4.9901 C   0  0  0  0  0  0
    4.1737    2.3539    3.4112 O   0  0  0  0  0  0
    0.9579   -0.4683    3.3207 C   0  0  0  0  0  0
    1.0648    1.6995    4.3008 O   0  0  0  0  0  0
    5.5024    0.5001    6.2490 O   0  0  0  0  0  0
    1.7005   -1.4993    2.7027 O   0  0  0  0  0  0
    2.7679    0.1265    5.4414 H   0  0  0  0  0  0
    3.7332    2.2594    5.3923 H   0  0  0  0  0  0
    2.1657    1.2032    2.6471 H   0  0  0  0  0  0
    4.2156   -1.1601    4.5976 H   0  0  0  0  0  0
    5.8997    0.4284    4.2570 H   0  0  0  0  0  0
    6.2203    1.9802    5.0129 H   0  0  0  0  0  0
    4.4558    1.7735    2.7202 H   0  0  0  0  0  0
    0.5675   -0.8750    4.2534 H   0  0  0  0  0  0
    0.0979   -0.2069    2.7025 H   0  0  0  0  0  0
    0.8192    1.3201    5.1305 H   0  0  0  0  0  0
    5.1697   -0.3772    6.1342 H   0  0  0  0  0  0
    2.4928   -1.6395    3.1980 H   0  0  0  0  0  0
  1  2  1  0  0  0
  1  3  1  0  0  0
  1  4  1  0  0  0
  1 11  1  0  0  0
  2  5  1  0  0  0
  2  6  1  0  0  0
  2 12  1  0  0  0
  3  7  1  0  0  0
  3  8  1  0  0  0
  3 13  1  0  0  0
  4 14  1  0  0  0
  5  9  1  0  0  0
  5 15  1  0  0  0
  5 16  1  0  0  0
  6 17  1  0  0  0
  7 10  1  0  0  0
  7 18  1  0  0  0
  7 19  1  0  0  0
  8 20  1  0  0  0
  9 21  1  0  0  0
 10 22  1  0  0  0
M  END
> <i_ionizer_Ion_state_n>
0

> <i_ionizer_Tot_Q>
0

> <s_ionizer_Ion_centers>


> <s_ionizer_Ion_types>


> <s_ionizer_Ion_ctrs_in>


> <r_ionizer_Ionization_penalty>
0

> <r_ionizer_Ionization_penalty_charging>
0

> <r_ionizer_Ionization_penalty_neutral>
0

> <s_st_Chirality_1>
2_R_6_1_5_12

> <s_st_Chirality_2>
3_R_8_1_7_13

> <i_mmod_Serial_Number-OPLS-2005>
216

> <i_i_glide_lignum>
214

> <r_i_docking_score>
-4.28599

> <r_i_glide_gscore>
-4.28599

> <r_i_glide_lipo>
-0.492769

> <r_i_glide_hbond>
-1.49147

> <r_i_glide_metal>
0

> <r_i_glide_eburp>
-2.5

> <r_i_glide_evdw>
-12.6634

> <r_i_glide_ecoul>
-14.8034

> <r_i_glide_erotb>
2.91941

> <r_i_glide_esite>
-0.227746

> <r_i_glide_emodel>
-32.1424

> <r_i_glide_energy>
-27.4668

> <r_i_glide_einternal>
7.09533

> <i_i_glide_confnum>
3

> <i_i_glide_posenum>
114

$$$$
C00059
                    3D
 Structure written by MMmdl.
  5  4  0  0  1  0            999 V2000
    1.0396   -0.0940    2.4849 S   0  0  0  0  0  0
    1.6879   -1.3969    2.6988 O   0  0  0  0  0  0
   -0.2944   -0.3001    1.9002 O   0  0  0  0  0  0
    1.8569    0.7158    1.5684 O   0  5  0  0  0  0
    0.9079    0.6054    3.7723 O   0  5  0  0  0  0
  1  2  2  0  0  0
  1  3  2  0  0  0
  1  4  1  0  0  0
  1  5  1  0  0  0
M  CHG  2   4  -1   5  -1
M  END
> <i_ionizer_Ion_state_n>
3

> <i_ionizer_Tot_Q>
-2

> <s_ionizer_Ion_centers>
4_5

> <s_ionizer_Ion_types>
OM_OM

> <s_ionizer_Ion_ctrs_in>
2_3

> <r_ionizer_Ionization_penalty>
1.18497e-09

> <r_ionizer_Ionization_penalty_charging>
1.18497e-09

> <r_ionizer_Ionization_penalty_neutral>
0

> <i_mmod_Serial_Number-OPLS-2005>
41

> <i_i_glide_lignum>
40

> <r_i_docking_score>
-4.27276

> <r_i_glide_gscore>
-4.27276

> <r_i_glide_lipo>
0

> <r_i_glide_hbond>
-0.688141

> <r_i_glide_metal>
0

> <r_i_glide_eburp>
-2.5

> <r_i_glide_evdw>
-5.51451

> <r_i_glide_ecoul>
-3.59533

> <r_i_glide_erotb>
0

> <r_i_glide_esite>
-0.283926

> <r_i_glide_emodel>
-25.5676

> <r_i_glide_energy>
-9.10983

> <r_i_glide_einternal>
0

> <i_i_glide_confnum>
1

> <i_i_glide_posenum>
79

$$$$
C01230
                    3D
 Structure written by MMmdl.
 88 87  0  0  1  0            999 V2000
    2.7254    4.2089    1.1434 C   0  0  0  0  0  0
  -10.6475   14.5980   -3.2649 C   0  0  0  0  0  0
  -11.7838   14.1915   -3.8674 C   0  0  0  0  0  0
  -10.1991   14.3183   -1.8410 C   0  0  0  0  0  0
  -12.8529   13.3289   -3.2165 C   0  0  0  0  0  0
   -9.4495   13.2736    0.6828 C   0  0  0  0  0  0
  -10.7137   13.0167    0.2886 C   0  0  0  0  0  0
   -8.8224   12.9695    2.0320 C   0  0  0  0  0  0
  -11.1973   13.4180   -1.0968 C   0  0  0  0  0  0
  -11.7567   12.3268    1.1554 C   0  0  0  0  0  0
   -5.8996   13.0246    4.0857 C   0  0  0  0  0  0
   -6.8330   13.7402    3.4252 C   0  0  0  0  0  0
   -5.2837   13.3346    5.4387 C   0  0  0  0  0  0
   -7.3236   13.3063    2.0522 C   0  0  0  0  0  0
   -7.4705   15.0143    3.9592 C   0  0  0  0  0  0
   -3.8807   10.9098    5.0794 C   0  0  0  0  0  0
   -4.6862   10.9649    6.1601 C   0  0  0  0  0  0
   -2.9619    9.7727    4.6684 C   0  0  0  0  0  0
   -5.5248   12.2012    6.4474 C   0  0  0  0  0  0
   -4.8356    9.8406    7.1743 C   0  0  0  0  0  0
   -1.4790    7.6261    3.5491 C   0  0  0  0  0  0
   -2.7874    7.6801    3.2249 C   0  0  0  0  0  0
   -0.4295    6.6723    3.0061 C   0  0  0  0  0  0
   -3.7167    8.6832    3.8914 C   0  0  0  0  0  0
   -3.4532    6.7752    2.1989 C   0  0  0  0  0  0
    1.8281    5.3139    1.6687 C   0  0  0  0  0  0
    1.0120    6.1326    0.9714 C   0  0  0  0  0  0
    0.1736    7.1811    1.6877 C   0  0  0  0  0  0
    0.8338    6.1046   -0.5407 C   0  0  0  0  0  0
  -12.0954   14.5860   -5.2981 C   0  0  0  0  0  0
    3.1537    3.3779    2.2021 O   0  0  0  0  0  0
    3.7836    1.8276    1.8967 P   0  0  0  0  0  0
    2.4016    0.8527    1.7038 O   0  0  0  0  0  0
    4.5178    1.8779    0.6110 O   0  0  0  0  0  0
    1.0920   -0.0442    2.5270 P   0  0  0  0  0  0
   -0.0684    0.0569    1.5111 O   0  0  0  0  0  0
    2.2511    3.5978    0.3800 H   0  0  0  0  0  0
    3.6023    4.6637    0.6827 H   0  0  0  0  0  0
   -9.9520   15.1954   -3.8368 H   0  0  0  0  0  0
  -10.0296   15.2412   -1.2911 H   0  0  0  0  0  0
   -9.2283   13.8244   -1.8927 H   0  0  0  0  0  0
  -13.7580   13.9144   -3.0544 H   0  0  0  0  0  0
  -13.1047   12.4949   -3.8719 H   0  0  0  0  0  0
  -12.5477   12.9022   -2.2636 H   0  0  0  0  0  0
   -8.7804   13.7518   -0.0180 H   0  0  0  0  0  0
   -8.9887   11.9327    2.3171 H   0  0  0  0  0  0
   -9.3433   13.5679    2.7801 H   0  0  0  0  0  0
  -11.3888   12.5230   -1.6906 H   0  0  0  0  0  0
  -12.1570   13.9268   -0.9975 H   0  0  0  0  0  0
  -12.4595   13.0561    1.5578 H   0  0  0  0  0  0
  -12.3193   11.6064    0.5611 H   0  0  0  0  0  0
  -11.3215   11.7762    1.9872 H   0  0  0  0  0  0
   -5.5243   12.1218    3.6256 H   0  0  0  0  0  0
   -5.6496   14.2822    5.8286 H   0  0  0  0  0  0
   -4.2122   13.4716    5.2897 H   0  0  0  0  0  0
   -7.1207   14.0944    1.3255 H   0  0  0  0  0  0
   -6.7419   12.4412    1.7313 H   0  0  0  0  0  0
   -7.0377   15.8887    3.4733 H   0  0  0  0  0  0
   -8.5417   15.0097    3.7562 H   0  0  0  0  0  0
   -7.3552   15.1289    5.0353 H   0  0  0  0  0  0
   -3.8622   11.7571    4.4093 H   0  0  0  0  0  0
   -2.4522    9.3483    5.5310 H   0  0  0  0  0  0
   -2.1765   10.1941    4.0401 H   0  0  0  0  0  0
   -6.5827   11.9341    6.4445 H   0  0  0  0  0  0
   -5.3024   12.5466    7.4578 H   0  0  0  0  0  0
   -4.2775   10.0704    8.0818 H   0  0  0  0  0  0
   -5.8848    9.7175    7.4439 H   0  0  0  0  0  0
   -4.4934    8.8789    6.7967 H   0  0  0  0  0  0
   -1.1016    8.3281    4.2786 H   0  0  0  0  0  0
   -0.8316    5.6697    2.8721 H   0  0  0  0  0  0
    0.3463    6.5803    3.7660 H   0  0  0  0  0  0
   -4.3508    9.1512    3.1370 H   0  0  0  0  0  0
   -4.3890    8.1447    4.5606 H   0  0  0  0  0  0
   -4.0249    5.9920    2.6967 H   0  0  0  0  0  0
   -4.1390    7.3536    1.5796 H   0  0  0  0  0  0
   -2.7426    6.3027    1.5235 H   0  0  0  0  0  0
    1.8742    5.4333    2.7412 H   0  0  0  0  0  0
    0.7930    8.0603    1.8692 H   0  0  0  0  0  0
   -0.6331    7.5103    1.0309 H   0  0  0  0  0  0
    1.1448    7.0518   -0.9797 H   0  0  0  0  0  0
    1.3994    5.3214   -1.0383 H   0  0  0  0  0  0
   -0.2165    5.9466   -0.7859 H   0  0  0  0  0  0
  -13.0319   15.1426   -5.3406 H   0  0  0  0  0  0
  -11.3107   15.2118   -5.7247 H   0  0  0  0  0  0
  -12.1956   13.6979   -5.9225 H   0  0  0  0  0  0
    4.4952    1.3817    3.1169 O   0  5  0  0  0  0
    1.7073   -1.4504    2.7067 O   0  5  0  0  0  0
    0.9106    0.7765    3.8246 O   0  5  0  0  0  0
  1 26  1  0  0  0
  1 31  1  0  0  0
  1 37  1  0  0  0
  1 38  1  0  0  0
  2  3  2  0  0  0
  2  4  1  0  0  0
  2 39  1  0  0  0
  3 30  1  0  0  0
  3  5  1  0  0  0
  4  9  1  0  0  0
  4 40  1  0  0  0
  4 41  1  0  0  0
  5 42  1  0  0  0
  5 43  1  0  0  0
  5 44  1  0  0  0
  6  7  2  0  0  0
  6  8  1  0  0  0
  6 45  1  0  0  0
  7  9  1  0  0  0
  7 10  1  0  0  0
  8 14  1  0  0  0
  8 46  1  0  0  0
  8 47  1  0  0  0
  9 48  1  0  0  0
  9 49  1  0  0  0
 10 50  1  0  0  0
 10 51  1  0  0  0
 10 52  1  0  0  0
 11 12  2  0  0  0
 11 13  1  0  0  0
 11 53  1  0  0  0
 12 14  1  0  0  0
 12 15  1  0  0  0
 13 19  1  0  0  0
 13 54  1  0  0  0
 13 55  1  0  0  0
 14 56  1  0  0  0
 14 57  1  0  0  0
 15 58  1  0  0  0
 15 59  1  0  0  0
 15 60  1  0  0  0
 16 17  2  0  0  0
 16 18  1  0  0  0
 16 61  1  0  0  0
 17 19  1  0  0  0
 17 20  1  0  0  0
 18 24  1  0  0  0
 18 62  1  0  0  0
 18 63  1  0  0  0
 19 64  1  0  0  0
 19 65  1  0  0  0
 20 66  1  0  0  0
 20 67  1  0  0  0
 20 68  1  0  0  0
 21 22  2  0  0  0
 21 23  1  0  0  0
 21 69  1  0  0  0
 22 24  1  0  0  0
 22 25  1  0  0  0
 23 28  1  0  0  0
 23 70  1  0  0  0
 23 71  1  0  0  0
 24 72  1  0  0  0
 24 73  1  0  0  0
 25 74  1  0  0  0
 25 75  1  0  0  0
 25 76  1  0  0  0
 26 27  2  0  0  0
 26 77  1  0  0  0
 27 28  1  0  0  0
 27 29  1  0  0  0
 28 78  1  0  0  0
 28 79  1  0  0  0
 29 80  1  0  0  0
 29 81  1  0  0  0
 29 82  1  0  0  0
 30 83  1  0  0  0
 30 84  1  0  0  0
 30 85  1  0  0  0
 31 32  1  0  0  0
 32 33  1  0  0  0
 32 34  2  0  0  0
 32 86  1  0  0  0
 33 35  1  0  0  0
 35 36  2  0  0  0
 35 87  1  0  0  0
 35 88  1  0  0  0
M  CHG  3  86  -1  87  -1  88  -1
M  END
> <i_ionizer_Ion_state_n>
7

> <i_ionizer_Tot_Q>
-3

> <s_ionizer_Ion_centers>
86_87_88

> <s_ionizer_Ion_types>
OM_OM_OM

> <s_ionizer_Ion_ctrs_in>
34_37_38

> <r_ionizer_Ionization_penalty>
2.23767e-05

> <r_ionizer_Ionization_penalty_charging>
2.23767e-05

> <r_ionizer_Ionization_penalty_neutral>
0

> <s_st_EZ_1>
8_6_7_9_E

> <s_st_EZ_2>
13_11_12_14_E

> <s_st_EZ_3>
18_16_17_19_E

> <s_st_EZ_4>
23_21_22_24_E

> <s_st_EZ_5>
1_26_27_28_E

> <i_mmod_Serial_Number-OPLS-2005>
427

> <i_i_glide_lignum>
423

> <r_i_docking_score>
-4.25863

> <r_i_glide_gscore>
-4.25863

> <r_i_glide_lipo>
-1.33369

> <r_i_glide_hbond>
-0.399937

> <r_i_glide_metal>
0

> <r_i_glide_eburp>
0

> <r_i_glide_evdw>
-37.4281

> <r_i_glide_ecoul>
-5.44017

> <r_i_glide_erotb>
1.2158

> <r_i_glide_esite>
-0.202523

> <r_i_glide_emodel>
-75.0259

> <r_i_glide_energy>
-42.8683

> <r_i_glide_einternal>
16.6949

> <i_i_glide_confnum>
972

> <i_i_glide_posenum>
452

$$$$
C05850
                    3D
 Structure written by MMmdl.
 84 86  0  0  1  0            999 V2000
    1.8284    1.9967    3.0758 C   0  0  2  0  0  0
    2.0871    1.0132    4.2920 C   0  0  2  0  0  0
    0.9675    1.9300    4.1364 O   0  0  0  0  0  0
    1.7997    1.2363    1.7648 C   0  0  1  0  0  0
    2.3458    3.4299    2.9185 C   0  0  0  0  0  0
    3.6211    0.9660    4.1444 C   0  0  1  0  0  0
    1.5434   -0.3929    4.5201 C   0  0  0  0  0  0
    3.2003    0.6477    1.6076 C   0  0  0  0  0  0
    0.7705    0.2705    1.6982 O   0  0  0  0  0  0
    1.4739    4.2808    2.0088 C   0  0  0  0  0  0
    4.0882    0.5833    2.7238 C   0  0  0  0  0  0
    4.2986    2.0609    4.7289 O   0  0  0  0  0  0
    3.6399    0.2243    0.3365 C   0  0  0  0  0  0
    1.8670    5.3110    1.2321 C   0  0  0  0  0  0
    5.4008    0.1009    2.5348 C   0  0  0  0  0  0
    4.9509   -0.2580    0.1638 C   0  0  0  0  0  0
    0.8722    6.0482    0.3481 C   0  0  0  0  0  0
    3.2963    5.8270    1.1580 C   0  0  0  0  0  0
    5.8311   -0.3156    1.2606 C   0  0  0  0  0  0
   -0.5697    5.9729    0.8766 C   0  0  0  0  0  0
   -0.7602    6.7785    2.1738 C   0  0  0  0  0  0
   -2.2329    7.0856    2.5259 C   0  0  1  0  0  0
   -2.3150    7.8047    3.8910 C   0  0  0  0  0  0
   -2.9261    7.8965    1.4131 C   0  0  0  0  0  0
   -3.7429    8.1692    4.3351 C   0  0  0  0  0  0
   -3.7608    8.9608    5.6550 C   0  0  0  0  0  0
   -2.7765   10.1510    5.7012 C   0  0  1  0  0  0
   -3.2283   11.2538    4.7178 C   0  0  0  0  0  0
   -2.6124   10.6983    7.1330 C   0  0  0  0  0  0
   -2.0759   11.9836    4.0050 C   0  0  0  0  0  0
   -1.0411   12.5488    4.9935 C   0  0  0  0  0  0
    0.3214   12.8915    4.3559 C   0  0  0  0  0  0
    0.2176   14.1686    3.5082 C   0  0  0  0  0  0
    1.4422   13.0334    5.3998 C   0  0  0  0  0  0
    1.6254    1.9293    0.9422 H   0  0  0  0  0  0
    2.4341    3.8963    3.8979 H   0  0  0  0  0  0
    3.3554    3.4144    2.5069 H   0  0  0  0  0  0
    3.9543    0.1328    4.7653 H   0  0  0  0  0  0
    1.8473   -0.7568    5.5017 H   0  0  0  0  0  0
    0.4537   -0.3993    4.4821 H   0  0  0  0  0  0
    1.9174   -1.0861    3.7661 H   0  0  0  0  0  0
    0.8879   -0.3385    2.4114 H   0  0  0  0  0  0
    0.4295    4.0056    2.0019 H   0  0  0  0  0  0
    5.2258    1.8792    4.7208 H   0  0  0  0  0  0
    2.9730    0.2782   -0.5117 H   0  0  0  0  0  0
    6.0802    0.0371    3.3721 H   0  0  0  0  0  0
    5.2832   -0.5794   -0.8123 H   0  0  0  0  0  0
    1.1696    7.0940    0.2597 H   0  0  0  0  0  0
    0.9247    5.6324   -0.6588 H   0  0  0  0  0  0
    3.7706    5.5032    0.2316 H   0  0  0  0  0  0
    3.3015    6.9170    1.1792 H   0  0  0  0  0  0
    3.9126    5.4928    1.9907 H   0  0  0  0  0  0
    6.8367   -0.6861    1.1256 H   0  0  0  0  0  0
   -1.2520    6.3400    0.1110 H   0  0  0  0  0  0
   -0.8335    4.9297    1.0549 H   0  0  0  0  0  0
   -0.3142    6.2078    2.9894 H   0  0  0  0  0  0
   -0.1940    7.7091    2.1154 H   0  0  0  0  0  0
   -2.7532    6.1319    2.6246 H   0  0  0  0  0  0
   -1.8818    7.1586    4.6558 H   0  0  0  0  0  0
   -1.6953    8.7022    3.8720 H   0  0  0  0  0  0
   -3.9762    8.0774    1.6388 H   0  0  0  0  0  0
   -2.9056    7.3725    0.4585 H   0  0  0  0  0  0
   -2.4453    8.8648    1.2709 H   0  0  0  0  0  0
   -4.2276    8.7532    3.5550 H   0  0  0  0  0  0
   -4.3289    7.2569    4.4527 H   0  0  0  0  0  0
   -4.7739    9.3357    5.8061 H   0  0  0  0  0  0
   -3.5636    8.2876    6.4904 H   0  0  0  0  0  0
   -1.8048    9.7875    5.3638 H   0  0  0  0  0  0
   -3.8633   10.8051    3.9527 H   0  0  0  0  0  0
   -3.8554   11.9778    5.2397 H   0  0  0  0  0  0
   -1.8874   11.5099    7.1749 H   0  0  0  0  0  0
   -3.5578   11.0769    7.5226 H   0  0  0  0  0  0
   -2.2531    9.9331    7.8197 H   0  0  0  0  0  0
   -1.5812   11.3005    3.3167 H   0  0  0  0  0  0
   -2.4807   12.7967    3.4014 H   0  0  0  0  0  0
   -1.4550   13.4534    5.4411 H   0  0  0  0  0  0
   -0.8964   11.8465    5.8156 H   0  0  0  0  0  0
    0.5934   12.0786    3.6812 H   0  0  0  0  0  0
    1.1658   14.3955    3.0197 H   0  0  0  0  0  0
   -0.5349   14.0635    2.7261 H   0  0  0  0  0  0
   -0.0558   15.0291    4.1197 H   0  0  0  0  0  0
    2.3853   13.3070    4.9259 H   0  0  0  0  0  0
    1.2051   13.8040    6.1339 H   0  0  0  0  0  0
    1.6148   12.1012    5.9369 H   0  0  0  0  0  0
  1  2  1  0  0  0
  1  3  1  0  0  0
  1  4  1  0  0  0
  1  5  1  0  0  0
  2  6  1  0  0  0
  2  7  1  0  0  0
  2  3  1  0  0  0
  4  8  1  0  0  0
  4  9  1  0  0  0
  4 35  1  0  0  0
  5 10  1  0  0  0
  5 36  1  0  0  0
  5 37  1  0  0  0
  6 11  1  0  0  0
  6 12  1  0  0  0
  6 38  1  0  0  0
  7 39  1  0  0  0
  7 40  1  0  0  0
  7 41  1  0  0  0
  8 13  2  0  0  0
  8 11  1  0  0  0
  9 42  1  0  0  0
 10 14  2  0  0  0
 10 43  1  0  0  0
 11 15  2  0  0  0
 12 44  1  0  0  0
 13 16  1  0  0  0
 13 45  1  0  0  0
 14 17  1  0  0  0
 14 18  1  0  0  0
 15 19  1  0  0  0
 15 46  1  0  0  0
 16 19  2  0  0  0
 16 47  1  0  0  0
 17 20  1  0  0  0
 17 48  1  0  0  0
 17 49  1  0  0  0
 18 50  1  0  0  0
 18 51  1  0  0  0
 18 52  1  0  0  0
 19 53  1  0  0  0
 20 21  1  0  0  0
 20 54  1  0  0  0
 20 55  1  0  0  0
 21 22  1  0  0  0
 21 56  1  0  0  0
 21 57  1  0  0  0
 22 23  1  0  0  0
 22 24  1  0  0  0
 22 58  1  0  0  0
 23 25  1  0  0  0
 23 59  1  0  0  0
 23 60  1  0  0  0
 24 61  1  0  0  0
 24 62  1  0  0  0
 24 63  1  0  0  0
 25 26  1  0  0  0
 25 64  1  0  0  0
 25 65  1  0  0  0
 26 27  1  0  0  0
 26 66  1  0  0  0
 26 67  1  0  0  0
 27 28  1  0  0  0
 27 29  1  0  0  0
 27 68  1  0  0  0
 28 30  1  0  0  0
 28 69  1  0  0  0
 28 70  1  0  0  0
 29 71  1  0  0  0
 29 72  1  0  0  0
 29 73  1  0  0  0
 30 31  1  0  0  0
 30 74  1  0  0  0
 30 75  1  0  0  0
 31 32  1  0  0  0
 31 76  1  0  0  0
 31 77  1  0  0  0
 32 33  1  0  0  0
 32 34  1  0  0  0
 32 78  1  0  0  0
 33 79  1  0  0  0
 33 80  1  0  0  0
 33 81  1  0  0  0
 34 82  1  0  0  0
 34 83  1  0  0  0
 34 84  1  0  0  0
M  END
> <i_ionizer_Ion_state_n>
0

> <i_ionizer_Tot_Q>
0

> <s_ionizer_Ion_centers>


> <s_ionizer_Ion_types>


> <s_ionizer_Ion_ctrs_in>


> <r_ionizer_Ionization_penalty>
0

> <r_ionizer_Ionization_penalty_charging>
0

> <r_ionizer_Ionization_penalty_neutral>
0

> <s_st_Chirality_1>
1_R_3_2_4_5

> <s_st_Chirality_2>
2_R_3_1_6_7

> <s_st_Chirality_3>
4_R_9_1_8_35

> <s_st_Chirality_4>
6_R_12_2_11_38

> <s_st_Chirality_5>
22_R_21_23_24_58

> <s_st_Chirality_6>
27_R_26_28_29_68

> <s_st_EZ_1>
5_10_14_17_E

> <i_mmod_Serial_Number-OPLS-2005>
814

> <i_i_glide_lignum>
804

> <r_i_docking_score>
-4.25286

> <r_i_glide_gscore>
-4.25286

> <r_i_glide_lipo>
-2.23599

> <r_i_glide_hbond>
0

> <r_i_glide_metal>
0

> <r_i_glide_eburp>
-0.221649

> <r_i_glide_evdw>
-40.4329

> <r_i_glide_ecoul>
-3.86359

> <r_i_glide_erotb>
1.35481

> <r_i_glide_esite>
0.470952

> <r_i_glide_emodel>
-62.5542

> <r_i_glide_energy>
-44.2965

> <r_i_glide_einternal>
10.7245

> <i_i_glide_confnum>
593

> <i_i_glide_posenum>
299

$$$$
C01996
                    3D
 Structure written by MMmdl.
 26 25  0  0  1  0            999 V2000
    3.2012    0.3867    3.2998 N   0  3  0  0  0  0
    2.8733    1.8026    2.9749 C   0  0  0  0  0  0
    4.6272    0.3194    3.6896 C   0  0  0  0  0  0
    2.3817   -0.1013    4.4330 C   0  0  0  0  0  0
    2.9947   -0.4892    2.1234 C   0  0  0  0  0  0
    1.3888    2.0718    2.6634 C   0  0  0  0  0  0
    1.2423    3.4334    2.2993 O   0  0  0  0  0  0
    0.1749    4.1206    2.7331 C   0  0  0  0  0  0
    0.1236    5.5345    2.1700 C   0  0  0  0  0  0
   -0.6920    3.7000    3.4991 O   0  0  0  0  0  0
    3.1793    2.4326    3.8113 H   0  0  0  0  0  0
    3.4763    2.1134    2.1206 H   0  0  0  0  0  0
    4.9153   -0.7029    3.9378 H   0  0  0  0  0  0
    5.2684    0.6628    2.8768 H   0  0  0  0  0  0
    4.8213    0.9458    4.5613 H   0  0  0  0  0  0
    2.6915   -1.1051    4.7263 H   0  0  0  0  0  0
    2.4909    0.5518    5.2998 H   0  0  0  0  0  0
    1.3247   -0.1476    4.1706 H   0  0  0  0  0  0
    3.3251   -1.5061    2.3395 H   0  0  0  0  0  0
    1.9428   -0.5387    1.8421 H   0  0  0  0  0  0
    3.5617   -0.1259    1.2654 H   0  0  0  0  0  0
    1.0418    1.4423    1.8435 H   0  0  0  0  0  0
    0.7638    1.8641    3.5325 H   0  0  0  0  0  0
   -0.7545    6.0629    2.5420 H   0  0  0  0  0  0
    1.0128    6.0921    2.4644 H   0  0  0  0  0  0
    0.0749    5.5073    1.0814 H   0  0  0  0  0  0
  1  2  1  0  0  0
  1  3  1  0  0  0
  1  4  1  0  0  0
  1  5  1  0  0  0
  2  6  1  0  0  0
  2 11  1  0  0  0
  2 12  1  0  0  0
  3 13  1  0  0  0
  3 14  1  0  0  0
  3 15  1  0  0  0
  4 16  1  0  0  0
  4 17  1  0  0  0
  4 18  1  0  0  0
  5 19  1  0  0  0
  5 20  1  0  0  0
  5 21  1  0  0  0
  6  7  1  0  0  0
  6 22  1  0  0  0
  6 23  1  0  0  0
  7  8  1  0  0  0
  8  9  1  0  0  0
  8 10  2  0  0  0
  9 24  1  0  0  0
  9 25  1  0  0  0
  9 26  1  0  0  0
M  CHG  1   1   1
M  END
> <i_ionizer_Ion_state_n>
0

> <i_ionizer_Tot_Q>
1

> <s_ionizer_Ion_centers>


> <s_ionizer_Ion_types>


> <s_ionizer_Ion_ctrs_in>


> <r_ionizer_Ionization_penalty>
0

> <r_ionizer_Ionization_penalty_charging>
0

> <r_ionizer_Ionization_penalty_neutral>
0

> <i_mmod_Serial_Number-OPLS-2005>
468

> <i_i_glide_lignum>
463

> <r_i_docking_score>
-4.24219

> <r_i_glide_gscore>
-4.24219

> <r_i_glide_lipo>
-0.470078

> <r_i_glide_hbond>
-0.719014

> <r_i_glide_metal>
0

> <r_i_glide_eburp>
-2.5

> <r_i_glide_evdw>
-14.3606

> <r_i_glide_ecoul>
-4.89594

> <r_i_glide_erotb>
1.55561

> <r_i_glide_esite>
-0.470268

> <r_i_glide_emodel>
-27.1512

> <r_i_glide_energy>
-19.2565

> <r_i_glide_einternal>
0.898554

> <i_i_glide_confnum>
1

> <i_i_glide_posenum>
212

$$$$
C05125
                    3D
 Structure written by MMmdl.
 49 50  0  0  1  0            999 V2000
    0.8361    5.9088    1.5102 N   0  3  0  0  0  0
    1.6369    6.4227    0.5459 C   0  0  0  0  0  0
    1.5021    5.2926    2.5782 C   0  0  0  0  0  0
   -0.6384    5.9935    1.4515 C   0  0  0  0  0  0
    3.3047    6.0970    0.9137 S   0  0  0  0  0  0
    1.1688    7.1508   -0.6891 C   0  0  1  0  0  0
    2.8631    5.2975    2.3854 C   0  0  0  0  0  0
    0.8651    4.6800    3.7966 C   0  0  0  0  0  0
   -1.2286    6.9271    2.5079 C   0  0  0  0  0  0
    0.5602    6.2482   -1.7716 C   0  0  0  0  0  0
    0.1802    7.9965   -0.1374 O   0  0  0  0  0  0
    3.9193    4.7279    3.2757 C   0  0  0  0  0  0
   -2.1932    7.9175    2.1995 C   0  0  0  0  0  0
   -0.8339    6.8647    3.8642 C   0  0  0  0  0  0
    4.5022    3.4070    2.7428 C   0  0  0  0  0  0
   -2.6988    8.7358    3.1441 N   0  0  0  0  0  0
   -2.6553    8.1045    0.9559 N   0  0  0  0  0  0
   -1.3456    7.6877    4.8017 N   0  0  0  0  0  0
    3.5492    2.3659    2.5870 O   0  0  0  0  0  0
   -2.2509    8.5772    4.3911 C   0  0  0  0  0  0
    3.9167    0.8893    1.8133 P   0  0  0  0  0  0
   -2.8349    9.4929    5.4462 C   0  0  0  0  0  0
    2.4292    0.0764    1.9623 O   0  0  0  0  0  0
    4.1963    1.1742    0.3868 O   0  0  0  0  0  0
    0.7611    0.1135    2.5978 P   0  0  0  0  0  0
    0.9183   -0.5863    3.9670 O   0  0  0  0  0  0
   -0.9660    6.2958    0.4585 H   0  0  0  0  0  0
   -1.0177    4.9794    1.5757 H   0  0  0  0  0  0
    1.9918    7.7250   -1.1123 H   0  0  0  0  0  0
   -0.1255    5.0857    3.9977 H   0  0  0  0  0  0
    0.7656    3.5998    3.6889 H   0  0  0  0  0  0
    1.4587    4.8654    4.6913 H   0  0  0  0  0  0
    0.2355    6.8390   -2.6285 H   0  0  0  0  0  0
    1.2902    5.5220   -2.1302 H   0  0  0  0  0  0
   -0.3087    5.7000   -1.4063 H   0  0  0  0  0  0
    0.6000    8.7336    0.2793 H   0  0  0  0  0  0
    4.7042    5.4733    3.3968 H   0  0  0  0  0  0
    3.5100    4.5641    4.2729 H   0  0  0  0  0  0
   -0.1003    6.1521    4.2097 H   0  0  0  0  0  0
    4.9772    3.5731    1.7760 H   0  0  0  0  0  0
    5.2818    3.0486    3.4160 H   0  0  0  0  0  0
   -3.3822    8.7813    0.7747 H   0  0  0  0  0  0
   -2.3859    7.5047    0.1908 H   0  0  0  0  0  0
   -3.7314    9.0451    5.8754 H   0  0  0  0  0  0
   -2.1197    9.6686    6.2506 H   0  0  0  0  0  0
   -3.1046   10.4590    5.0181 H   0  0  0  0  0  0
    4.9321    0.1916    2.6342 O   0  5  0  0  0  0
    0.4457    1.6255    2.6365 O   0  5  0  0  0  0
    0.0028   -0.7030    1.5260 O   0  5  0  0  0  0
  1  2  2  0  0  0
  1  3  1  0  0  0
  1  4  1  0  0  0
  2  5  1  0  0  0
  2  6  1  0  0  0
  3  7  2  0  0  0
  3  8  1  0  0  0
  4  9  1  0  0  0
  4 27  1  0  0  0
  4 28  1  0  0  0
  5  7  1  0  0  0
  6 10  1  0  0  0
  6 11  1  0  0  0
  6 29  1  0  0  0
  7 12  1  0  0  0
  8 30  1  0  0  0
  8 31  1  0  0  0
  8 32  1  0  0  0
  9 13  2  0  0  0
  9 14  1  0  0  0
 10 33  1  0  0  0
 10 34  1  0  0  0
 10 35  1  0  0  0
 11 36  1  0  0  0
 12 15  1  0  0  0
 12 37  1  0  0  0
 12 38  1  0  0  0
 13 16  1  0  0  0
 13 17  1  0  0  0
 14 18  2  0  0  0
 14 39  1  0  0  0
 15 19  1  0  0  0
 15 40  1  0  0  0
 15 41  1  0  0  0
 16 20  2  0  0  0
 17 42  1  0  0  0
 17 43  1  0  0  0
 18 20  1  0  0  0
 19 21  1  0  0  0
 20 22  1  0  0  0
 21 23  1  0  0  0
 21 24  2  0  0  0
 21 47  1  0  0  0
 22 44  1  0  0  0
 22 45  1  0  0  0
 22 46  1  0  0  0
 23 25  1  0  0  0
 25 26  2  0  0  0
 25 48  1  0  0  0
 25 49  1  0  0  0
M  CHG  4   1   1  47  -1  48  -1  49  -1
M  END
> <i_ionizer_Ion_state_n>
7

> <i_ionizer_Tot_Q>
-2

> <s_ionizer_Ion_centers>
47_48_49

> <s_ionizer_Ion_types>
OM_OM_OM

> <s_ionizer_Ion_ctrs_in>
24_27_28

> <r_ionizer_Ionization_penalty>
2.23767e-05

> <r_ionizer_Ionization_penalty_charging>
2.23767e-05

> <r_ionizer_Ionization_penalty_neutral>
0

> <s_st_Chirality_1>
6_R_11_2_10_29

> <i_mmod_Serial_Number-OPLS-2005>
628

> <i_i_glide_lignum>
621

> <r_i_docking_score>
-4.24157

> <r_i_glide_gscore>
-4.24157

> <r_i_glide_lipo>
-1.19653

> <r_i_glide_hbond>
-1.23713

> <r_i_glide_metal>
0

> <r_i_glide_eburp>
-0.254931

> <r_i_glide_evdw>
-21.8109

> <r_i_glide_ecoul>
-4.081

> <r_i_glide_erotb>
0.848111

> <r_i_glide_esite>
-0.248118

> <r_i_glide_emodel>
-60.3387

> <r_i_glide_energy>
-25.8919

> <r_i_glide_einternal>
8.41184

> <i_i_glide_confnum>
165

> <i_i_glide_posenum>
575

$$$$
C00219
                    3D
 Structure written by MMmdl.
 53 52  0  0  1  0            999 V2000
    3.9439    5.0569    2.4617 C   0  0  0  0  0  0
    3.4554    5.5331    1.3018 C   0  0  0  0  0  0
    3.1884    4.2280    3.4835 C   0  0  0  0  0  0
    2.0598    5.3027    0.7554 C   0  0  0  0  0  0
    4.1467    3.3800    4.2992 C   0  0  0  0  0  0
    1.3839    6.6304    0.4644 C   0  0  0  0  0  0
    4.2073    2.0358    4.3413 C   0  0  0  0  0  0
    0.1878    7.0500    0.9188 C   0  0  0  0  0  0
    3.3507    1.0542    3.5620 C   0  0  0  0  0  0
   -0.7772    6.2854    1.8081 C   0  0  0  0  0  0
    2.4352    0.2318    4.4783 C   0  0  0  0  0  0
   -0.7719    6.8755    3.2066 C   0  0  0  0  0  0
    1.5351   -0.7360    3.6853 C   0  0  0  0  0  0
   -1.7690    7.5438    3.8165 C   0  0  0  0  0  0
    0.6435   -0.0202    2.6640 C   0  0  0  0  0  0
   -3.1347    7.8872    3.2476 C   0  0  0  0  0  0
    0.1007   -0.6993    1.7640 O   0  0  0  0  0  0
   -3.8165    9.0094    4.0422 C   0  0  0  0  0  0
   -4.2227    8.5643    5.4545 C   0  0  0  0  0  0
   -4.9924    9.6511    6.2183 C   0  0  0  0  0  0
   -6.3285   10.0003    5.5544 C   0  0  0  0  0  0
    4.9694    5.2823    2.7161 H   0  0  0  0  0  0
    4.1003    6.1418    0.6848 H   0  0  0  0  0  0
    2.6720    4.9085    4.1605 H   0  0  0  0  0  0
    2.4095    3.6329    3.0140 H   0  0  0  0  0  0
    2.1355    4.7301   -0.1691 H   0  0  0  0  0  0
    1.4917    4.6883    1.4484 H   0  0  0  0  0  0
    4.8419    3.9366    4.9108 H   0  0  0  0  0  0
    1.9452    7.2993   -0.1720 H   0  0  0  0  0  0
    4.9371    1.5821    4.9960 H   0  0  0  0  0  0
   -0.1373    8.0412    0.6371 H   0  0  0  0  0  0
    2.7563    1.5636    2.8085 H   0  0  0  0  0  0
    4.0191    0.3905    3.0129 H   0  0  0  0  0  0
   -1.7972    6.3371    1.4354 H   0  0  0  0  0  0
   -0.4839    5.2381    1.8025 H   0  0  0  0  0  0
    3.0457   -0.3273    5.1893 H   0  0  0  0  0  0
    1.8143    0.9098    5.0662 H   0  0  0  0  0  0
    0.1468    6.7323    3.7570 H   0  0  0  0  0  0
    2.1450   -1.4707    3.1584 H   0  0  0  0  0  0
    0.8940   -1.2906    4.3715 H   0  0  0  0  0  0
   -1.6001    7.8824    4.8284 H   0  0  0  0  0  0
   -3.0656    8.1847    2.2033 H   0  0  0  0  0  0
   -3.7514    6.9886    3.2780 H   0  0  0  0  0  0
   -3.1480    9.8686    4.1092 H   0  0  0  0  0  0
   -4.7012    9.3490    3.5022 H   0  0  0  0  0  0
   -4.8390    7.6670    5.3855 H   0  0  0  0  0  0
   -3.3328    8.2843    6.0195 H   0  0  0  0  0  0
   -5.1714    9.3231    7.2426 H   0  0  0  0  0  0
   -4.3831   10.5529    6.2855 H   0  0  0  0  0  0
   -6.8523   10.7721    6.1185 H   0  0  0  0  0  0
   -6.1753   10.3753    4.5418 H   0  0  0  0  0  0
   -6.9803    9.1284    5.4960 H   0  0  0  0  0  0
    0.5050    1.2129    2.8170 O   0  5  0  0  0  0
  1  2  2  0  0  0
  1  3  1  0  0  0
  1 22  1  0  0  0
  2  4  1  0  0  0
  2 23  1  0  0  0
  3  5  1  0  0  0
  3 24  1  0  0  0
  3 25  1  0  0  0
  4  6  1  0  0  0
  4 26  1  0  0  0
  4 27  1  0  0  0
  5  7  2  0  0  0
  5 28  1  0  0  0
  6  8  2  0  0  0
  6 29  1  0  0  0
  7  9  1  0  0  0
  7 30  1  0  0  0
  8 10  1  0  0  0
  8 31  1  0  0  0
  9 11  1  0  0  0
  9 32  1  0  0  0
  9 33  1  0  0  0
 10 12  1  0  0  0
 10 34  1  0  0  0
 10 35  1  0  0  0
 11 13  1  0  0  0
 11 36  1  0  0  0
 11 37  1  0  0  0
 12 14  2  0  0  0
 12 38  1  0  0  0
 13 15  1  0  0  0
 13 39  1  0  0  0
 13 40  1  0  0  0
 14 16  1  0  0  0
 14 41  1  0  0  0
 15 17  2  0  0  0
 15 53  1  0  0  0
 16 18  1  0  0  0
 16 42  1  0  0  0
 16 43  1  0  0  0
 18 19  1  0  0  0
 18 44  1  0  0  0
 18 45  1  0  0  0
 19 20  1  0  0  0
 19 46  1  0  0  0
 19 47  1  0  0  0
 20 21  1  0  0  0
 20 48  1  0  0  0
 20 49  1  0  0  0
 21 50  1  0  0  0
 21 51  1  0  0  0
 21 52  1  0  0  0
M  CHG  1  53  -1
M  END
> <i_ionizer_Ion_state_n>
1

> <i_ionizer_Tot_Q>
-1

> <s_ionizer_Ion_centers>
53

> <s_ionizer_Ion_types>
OM

> <s_ionizer_Ion_ctrs_in>
17

> <r_ionizer_Ionization_penalty>
0.00059219

> <r_ionizer_Ionization_penalty_charging>
0.00059219

> <r_ionizer_Ionization_penalty_neutral>
0

> <s_st_EZ_1>
3_1_2_4_Z

> <s_st_EZ_2>
3_5_7_9_Z

> <s_st_EZ_3>
4_6_8_10_Z

> <s_st_EZ_4>
10_12_14_16_Z

> <i_mmod_Serial_Number-OPLS-2005>
145

> <i_i_glide_lignum>
143

> <r_i_docking_score>
-4.22711

> <r_i_glide_gscore>
-4.22711

> <r_i_glide_lipo>
-1.38914

> <r_i_glide_hbond>
-0.370359

> <r_i_glide_metal>
0

> <r_i_glide_eburp>
-1.48887

> <r_i_glide_evdw>
-33.1049

> <r_i_glide_ecoul>
-2.54478

> <r_i_glide_erotb>
2.7442

> <r_i_glide_esite>
-0.820065

> <r_i_glide_emodel>
-56.7993

> <r_i_glide_energy>
-35.6497

> <r_i_glide_einternal>
6.69887

> <i_i_glide_confnum>
477

> <i_i_glide_posenum>
110

$$$$
C05823
                    3D
 Structure written by MMmdl.
 12 11  0  0  1  0            999 V2000
    0.6434    2.0923    2.9694 C   0  0  2  0  0  0
    0.1001    3.4793    3.3548 C   0  0  0  0  0  0
    1.1676    1.3073    4.1927 C   0  0  0  0  0  0
    1.6758    2.2396    2.0109 O   0  0  0  0  0  0
    0.8765    4.2959    3.9001 O   0  0  0  0  0  0
    1.3525   -0.4540    3.7904 S   0  0  0  0  0  0
   -0.1742    1.5379    2.5067 H   0  0  0  0  0  0
    2.1284    1.6978    4.5311 H   0  0  0  0  0  0
    0.4716    1.3890    5.0287 H   0  0  0  0  0  0
    2.3831    2.7224    2.4079 H   0  0  0  0  0  0
    1.8825   -0.8122    4.9629 H   0  0  0  0  0  0
   -1.1046    3.7002    3.0999 O   0  5  0  0  0  0
  1  2  1  0  0  0
  1  3  1  0  0  0
  1  4  1  0  0  0
  1  7  1  0  0  0
  2  5  2  0  0  0
  2 12  1  0  0  0
  3  6  1  0  0  0
  3  8  1  0  0  0
  3  9  1  0  0  0
  4 10  1  0  0  0
  6 11  1  0  0  0
M  CHG  1  12  -1
M  END
> <i_ionizer_Ion_state_n>
1

> <i_ionizer_Tot_Q>
-1

> <s_ionizer_Ion_centers>
12

> <s_ionizer_Ion_types>
OM

> <s_ionizer_Ion_ctrs_in>
6

> <r_ionizer_Ionization_penalty>
0.00246284

> <r_ionizer_Ionization_penalty_charging>
0.00059219

> <r_ionizer_Ionization_penalty_neutral>
0.00187065

> <s_st_Chirality_1>
1_R_4_3_2_7

> <i_mmod_Serial_Number-OPLS-2005>
799

> <i_i_glide_lignum>
790

> <r_i_docking_score>
-4.22112

> <r_i_glide_gscore>
-4.22112

> <r_i_glide_lipo>
-0.144609

> <r_i_glide_hbond>
-1.36811

> <r_i_glide_metal>
0

> <r_i_glide_eburp>
-2.5

> <r_i_glide_evdw>
-13.2308

> <r_i_glide_ecoul>
-2.13413

> <r_i_glide_erotb>
1.04527

> <r_i_glide_esite>
0.0182062

> <r_i_glide_emodel>
-33.2602

> <r_i_glide_energy>
-15.3649

> <r_i_glide_einternal>
1.63372

> <i_i_glide_confnum>
1

> <i_i_glide_posenum>
208

$$$$
C00008
                    3D
 Structure written by MMmdl.
 39 41  0  0  1  0            999 V2000
    0.8164    5.3050    2.5133 N   0  0  0  0  0  0
   -0.0233    6.1620    1.8374 C   0  0  0  0  0  0
    1.7527    4.3233    1.8861 C   0  0  2  0  0  0
    0.6029    5.5736    3.8503 C   0  0  0  0  0  0
   -0.7086    6.9024    2.8383 C   0  0  0  0  0  0
   -0.1842    6.2982    0.4884 N   0  0  0  0  0  0
    1.5107    3.0759    2.4707 O   0  0  0  0  0  0
    3.1990    4.7205    2.2067 C   0  0  1  0  0  0
   -0.2867    6.4989    4.0978 N   0  0  0  0  0  0
   -1.6400    7.8602    2.3654 C   0  0  0  0  0  0
   -1.0908    7.2350    0.1953 C   0  0  0  0  0  0
    2.6789    2.5941    3.1318 C   0  0  1  0  0  0
    3.4956    3.8542    3.4193 C   0  0  1  0  0  0
    4.0604    4.4392    1.1195 O   0  0  0  0  0  0
   -1.8053    7.9985    1.0291 N   0  0  0  0  0  0
   -2.3654    8.6380    3.1796 N   0  0  0  0  0  0
    2.2860    1.7983    4.3816 C   0  0  0  0  0  0
    4.8772    3.5955    3.5856 O   0  0  0  0  0  0
    2.1771    0.4317    4.0448 O   0  0  0  0  0  0
    1.6121   -0.0500    2.5177 P   0  0  0  0  0  0
    2.9551    0.1748    1.4971 O   0  0  0  0  0  0
    1.3138   -1.4997    2.5789 O   0  0  0  0  0  0
    4.7381    0.1853    1.3693 P   0  0  0  0  0  0
    5.1833    0.1779    2.8488 O   0  0  0  0  0  0
    1.5045    4.3312    0.8240 H   0  0  0  0  0  0
    1.1279    5.0612    4.6440 H   0  0  0  0  0  0
    3.2755    5.7843    2.4373 H   0  0  0  0  0  0
   -1.2707    7.3974   -0.8573 H   0  0  0  0  0  0
    3.2211    1.9553    2.4326 H   0  0  0  0  0  0
    3.1171    4.3488    4.3126 H   0  0  0  0  0  0
    4.7415    5.0960    1.1235 H   0  0  0  0  0  0
   -3.0149    9.3059    2.7917 H   0  0  0  0  0  0
   -2.2528    8.5534    4.1798 H   0  0  0  0  0  0
    3.0331    1.9190    5.1660 H   0  0  0  0  0  0
    1.3365    2.1546    4.7814 H   0  0  0  0  0  0
    5.3322    4.4224    3.4984 H   0  0  0  0  0  0
    0.5433    0.8939    2.1202 O   0  5  0  0  0  0
    5.0190   -1.1098    0.5738 O   0  5  0  0  0  0
    4.9927    1.5018    0.6004 O   0  5  0  0  0  0
  1  2  1  0  0  0
  1  3  1  0  0  0
  1  4  1  0  0  0
  2  5  2  0  0  0
  2  6  1  0  0  0
  3  7  1  0  0  0
  3  8  1  0  0  0
  3 25  1  0  0  0
  4  9  2  0  0  0
  4 26  1  0  0  0
  5 10  1  0  0  0
  5  9  1  0  0  0
  6 11  2  0  0  0
  7 12  1  0  0  0
  8 13  1  0  0  0
  8 14  1  0  0  0
  8 27  1  0  0  0
 10 15  2  0  0  0
 10 16  1  0  0  0
 11 15  1  0  0  0
 11 28  1  0  0  0
 12 17  1  0  0  0
 12 13  1  0  0  0
 12 29  1  0  0  0
 13 18  1  0  0  0
 13 30  1  0  0  0
 14 31  1  0  0  0
 16 32  1  0  0  0
 16 33  1  0  0  0
 17 19  1  0  0  0
 17 34  1  0  0  0
 17 35  1  0  0  0
 18 36  1  0  0  0
 19 20  1  0  0  0
 20 21  1  0  0  0
 20 22  2  0  0  0
 20 37  1  0  0  0
 21 23  1  0  0  0
 23 24  2  0  0  0
 23 38  1  0  0  0
 23 39  1  0  0  0
M  CHG  3  37  -1  38  -1  39  -1
M  END
> <i_ionizer_Ion_state_n>
14

> <i_ionizer_Tot_Q>
-3

> <s_ionizer_Ion_centers>
37_38_39

> <s_ionizer_Ion_types>
OM_OM_OM

> <s_ionizer_Ion_ctrs_in>
22_25_26

> <r_ionizer_Ionization_penalty>
4.11125e-05

> <r_ionizer_Ionization_penalty_charging>
2.23767e-05

> <r_ionizer_Ionization_penalty_neutral>
1.87357e-05

> <s_st_Chirality_1>
3_R_7_1_8_25

> <s_st_Chirality_2>
8_R_14_3_13_27

> <s_st_Chirality_3>
12_R_7_13_17_29

> <s_st_Chirality_4>
13_R_18_8_12_30

> <i_mmod_Serial_Number-OPLS-2005>
7

> <i_i_glide_lignum>
7

> <r_i_docking_score>
-4.22014

> <r_i_glide_gscore>
-4.22014

> <r_i_glide_lipo>
-0.481541

> <r_i_glide_hbond>
-1.34748

> <r_i_glide_metal>
0

> <r_i_glide_eburp>
-0.574377

> <r_i_glide_evdw>
-24.5214

> <r_i_glide_ecoul>
-4.61929

> <r_i_glide_erotb>
0.629641

> <r_i_glide_esite>
-0.0227478

> <r_i_glide_emodel>
-48.8558

> <r_i_glide_energy>
-29.1407

> <r_i_glide_einternal>
8.0481

> <i_i_glide_confnum>
204

> <i_i_glide_posenum>
225

$$$$
C00956
                    3D
 Structure written by MMmdl.
 21 20  0  0  1  0            999 V2000
    2.2959    1.6548    3.5351 C   0  0  0  0  0  0
    2.3584    0.3409    4.3484 C   0  0  1  0  0  0
    0.9100    2.3248    3.5239 C   0  0  0  0  0  0
    1.3356   -0.6987    3.8667 C   0  0  0  0  0  0
    0.9246    3.6760    2.7811 C   0  0  0  0  0  0
    1.4263   -1.1020    2.6851 O   0  0  0  0  0  0
   -0.4556    4.3410    2.7001 C   0  0  0  0  0  0
   -1.4561    3.7033    3.0977 O   0  0  0  0  0  0
    3.0138    2.3597    3.9567 H   0  0  0  0  0  0
    2.6220    1.4810    2.5083 H   0  0  0  0  0  0
    2.1850    0.5671    5.4021 H   0  0  0  0  0  0
    0.1816    1.6616    3.0550 H   0  0  0  0  0  0
    0.5779    2.4728    4.5526 H   0  0  0  0  0  0
    3.7188   -1.1043    4.8098 H   0  0  0  0  0  0
    3.8659   -0.5102    3.2803 H   0  0  0  0  0  0
    1.6053    4.3675    3.2785 H   0  0  0  0  0  0
    1.2999    3.5378    1.7666 H   0  0  0  0  0  0
    3.6946   -0.2671    4.2456 N   0  3  0  0  0  0
    4.3944    0.3854    4.5670 H   0  0  0  0  0  0
    0.4997   -1.1028    4.7039 O   0  5  0  0  0  0
   -0.4812    5.5020    2.2373 O   0  5  0  0  0  0
  1  2  1  0  0  0
  1  3  1  0  0  0
  1  9  1  0  0  0
  1 10  1  0  0  0
  2  4  1  0  0  0
  2 11  1  0  0  0
  2 18  1  0  0  0
  3  5  1  0  0  0
  3 12  1  0  0  0
  3 13  1  0  0  0
  4  6  2  0  0  0
  4 20  1  0  0  0
  5  7  1  0  0  0
  5 16  1  0  0  0
  5 17  1  0  0  0
  7  8  2  0  0  0
  7 21  1  0  0  0
 14 18  1  0  0  0
 15 18  1  0  0  0
 18 19  1  0  0  0
M  CHG  3  18   1  20  -1  21  -1
M  END
> <i_ionizer_Ion_state_n>
7

> <i_ionizer_Tot_Q>
-1

> <s_ionizer_Ion_centers>
18_20_21

> <s_ionizer_Ion_types>
N5_OM_OM

> <s_ionizer_Ion_ctrs_in>
5_7_10

> <r_ionizer_Ionization_penalty>
0.00137171

> <r_ionizer_Ionization_penalty_charging>
0.00137171

> <r_ionizer_Ionization_penalty_neutral>
0

> <s_st_Chirality_1>
2_S_18_4_1_11

> <i_mmod_Serial_Number-OPLS-2005>
365

> <i_i_glide_lignum>
361

> <r_i_docking_score>
-4.21378

> <r_i_glide_gscore>
-4.21378

> <r_i_glide_lipo>
-0.293101

> <r_i_glide_hbond>
-1.53985

> <r_i_glide_metal>
0

> <r_i_glide_eburp>
-2.5

> <r_i_glide_evdw>
-12.1363

> <r_i_glide_ecoul>
-7.68928

> <r_i_glide_erotb>
2.01616

> <r_i_glide_esite>
-0.157153

> <r_i_glide_emodel>
-52.4299

> <r_i_glide_energy>
-19.8256

> <r_i_glide_einternal>
2.81076

> <i_i_glide_confnum>
23

> <i_i_glide_posenum>
685

$$$$
C01962
                    3D
 Structure written by MMmdl.
 15 14  0  0  1  0            999 V2000
    2.5496   -0.4428    3.6725 C   0  0  2  0  0  0
    3.7262   -0.0256    2.7604 C   0  0  0  0  0  0
    1.2488    0.3135    3.3292 C   0  0  0  0  0  0
    3.6389   -0.7459    1.0931 S   0  0  0  0  0  0
    0.9086    1.2812    4.0479 O   0  0  0  0  0  0
    5.4798   -0.2062    0.2524 S   0  0  0  0  0  0
    2.3494   -1.5020    3.5058 H   0  0  0  0  0  0
    3.7424    1.0598    2.6579 H   0  0  0  0  0  0
    4.6823   -0.2996    3.2083 H   0  0  0  0  0  0
    3.7148   -0.8566    5.3142 H   0  0  0  0  0  0
    3.0875    0.6737    5.2919 H   0  0  0  0  0  0
    5.3889   -0.8644   -0.9070 H   0  0  0  0  0  0
    2.9004   -0.3001    5.1000 N   0  3  0  0  0  0
    2.1164   -0.6022    5.6604 H   0  0  0  0  0  0
    0.5928   -0.1065    2.3508 O   0  5  0  0  0  0
  1  2  1  0  0  0
  1  3  1  0  0  0
  1  7  1  0  0  0
  1 13  1  0  0  0
  2  4  1  0  0  0
  2  8  1  0  0  0
  2  9  1  0  0  0
  3  5  2  0  0  0
  3 15  1  0  0  0
  4  6  1  0  0  0
  6 12  1  0  0  0
 10 13  1  0  0  0
 11 13  1  0  0  0
 13 14  1  0  0  0
M  CHG  2  13   1  15  -1
M  END
> <i_ionizer_Ion_state_n>
3

> <i_ionizer_Tot_Q>
0

> <s_ionizer_Ion_centers>
13_15

> <s_ionizer_Ion_types>
N5_OM

> <s_ionizer_Ion_ctrs_in>
4_6

> <r_ionizer_Ionization_penalty>
0.000779521

> <r_ionizer_Ionization_penalty_charging>
0.000779521

> <r_ionizer_Ionization_penalty_neutral>
0

> <s_st_Chirality_1>
1_S_13_2_3_7

> <i_mmod_Serial_Number-OPLS-2005>
467

> <i_i_glide_lignum>
462

> <r_i_docking_score>
-4.20721

> <r_i_glide_gscore>
-4.20721

> <r_i_glide_lipo>
-0.163765

> <r_i_glide_hbond>
-0.856699

> <r_i_glide_metal>
0

> <r_i_glide_eburp>
-2.5

> <r_i_glide_evdw>
-12.3643

> <r_i_glide_ecoul>
-6.05408

> <r_i_glide_erotb>
1.44332

> <r_i_glide_esite>
-0.535514

> <r_i_glide_emodel>
-35.449

> <r_i_glide_energy>
-18.4183

> <r_i_glide_einternal>
1.07306

> <i_i_glide_confnum>
2

> <i_i_glide_posenum>
662

$$$$
C03453
                    3D
 Structure written by MMmdl.
 15 14  0  0  1  0            999 V2000
    2.9841    1.0052    3.0419 C   0  0  0  0  0  0
    2.2750    0.1252    2.0008 C   0  0  0  0  0  0
    2.1982    2.2635    3.3619 C   0  0  0  0  0  0
    0.9197   -0.4832    2.4228 C   0  0  0  0  0  0
    2.7560   -0.0730    0.8824 O   0  0  0  0  0  0
    0.9094    2.4554    3.0370 C   0  0  0  0  0  0
    0.7657   -0.6998    3.6461 O   0  0  0  0  0  0
    0.1069    3.7352    3.3693 C   0  0  0  0  0  0
    0.7535    4.6635    3.9008 O   0  0  0  0  0  0
    3.1423    0.4365    3.9583 H   0  0  0  0  0  0
    3.9660    1.2806    2.6559 H   0  0  0  0  0  0
    2.7314    3.0357    3.8979 H   0  0  0  0  0  0
    0.3832    1.6746    2.5086 H   0  0  0  0  0  0
    0.1022   -0.6996    1.5000 O   0  5  0  0  0  0
   -1.1133    3.6999    3.0995 O   0  5  0  0  0  0
  1  2  1  0  0  0
  1  3  1  0  0  0
  1 10  1  0  0  0
  1 11  1  0  0  0
  2  4  1  0  0  0
  2  5  2  0  0  0
  3  6  2  0  0  0
  3 12  1  0  0  0
  4  7  2  0  0  0
  4 14  1  0  0  0
  6  8  1  0  0  0
  6 13  1  0  0  0
  8  9  2  0  0  0
  8 15  1  0  0  0
M  CHG  2  14  -1  15  -1
M  END
> <i_ionizer_Ion_state_n>
3

> <i_ionizer_Tot_Q>
-2

> <s_ionizer_Ion_centers>
14_15

> <s_ionizer_Ion_types>
OM_OM

> <s_ionizer_Ion_ctrs_in>
7_10

> <r_ionizer_Ionization_penalty>
0.00118438

> <r_ionizer_Ionization_penalty_charging>
0.00118438

> <r_ionizer_Ionization_penalty_neutral>
0

> <s_st_EZ_1>
1_3_6_8_E

> <i_mmod_Serial_Number-OPLS-2005>
546

> <i_i_glide_lignum>
540

> <r_i_docking_score>
-4.1853

> <r_i_glide_gscore>
-4.1853

> <r_i_glide_lipo>
-0.181233

> <r_i_glide_hbond>
-1.70627

> <r_i_glide_metal>
0

> <r_i_glide_eburp>
-2.5

> <r_i_glide_evdw>
-13.2471

> <r_i_glide_ecoul>
-3.73227

> <r_i_glide_erotb>
2.10129

> <r_i_glide_esite>
-0.466088

> <r_i_glide_emodel>
-47.5496

> <r_i_glide_energy>
-16.9794

> <r_i_glide_einternal>
4.68063

> <i_i_glide_confnum>
2

> <i_i_glide_posenum>
255

$$$$
C01165
                    3D
 Structure written by MMmdl.
 18 17  0  0  1  0            999 V2000
    2.7936    0.3741    3.7662 C   0  0  2  0  0  0
    1.7023   -0.6991    3.7200 C   0  0  0  0  0  0
    2.7483    1.2583    2.5053 C   0  0  0  0  0  0
    0.8829   -0.7385    4.6653 O   0  0  0  0  0  0
    1.3932    1.9620    2.3232 C   0  0  0  0  0  0
    1.1853    3.1070    3.3129 C   0  0  0  0  0  0
    0.0995    3.2939    3.8592 O   0  0  0  0  0  0
    2.6320    0.9938    4.6494 H   0  0  0  0  0  0
    3.5542    1.9930    2.5393 H   0  0  0  0  0  0
    2.9384    0.6421    1.6250 H   0  0  0  0  0  0
    4.0945   -0.8539    4.7435 H   0  0  0  0  0  0
    4.2314   -0.9044    3.1029 H   0  0  0  0  0  0
    1.3138    2.3626    1.3124 H   0  0  0  0  0  0
    0.5779    1.2494    2.4482 H   0  0  0  0  0  0
    2.0572    3.7381    3.4849 H   0  0  0  0  0  0
    4.0962   -0.2987    3.8999 N   0  3  0  0  0  0
    4.8353    0.3874    3.9410 H   0  0  0  0  0  0
    1.6908   -1.4472    2.7191 O   0  5  0  0  0  0
  1  2  1  0  0  0
  1  3  1  0  0  0
  1  8  1  0  0  0
  1 16  1  0  0  0
  2  4  2  0  0  0
  2 18  1  0  0  0
  3  5  1  0  0  0
  3  9  1  0  0  0
  3 10  1  0  0  0
  5  6  1  0  0  0
  5 13  1  0  0  0
  5 14  1  0  0  0
  6  7  2  0  0  0
  6 15  1  0  0  0
 11 16  1  0  0  0
 12 16  1  0  0  0
 16 17  1  0  0  0
M  CHG  2  16   1  18  -1
M  END
> <i_ionizer_Ion_state_n>
3

> <i_ionizer_Tot_Q>
0

> <s_ionizer_Ion_centers>
16_18

> <s_ionizer_Ion_types>
N5_OM

> <s_ionizer_Ion_ctrs_in>
4_5

> <r_ionizer_Ionization_penalty>
0.000779521

> <r_ionizer_Ionization_penalty_charging>
0.000779521

> <r_ionizer_Ionization_penalty_neutral>
0

> <s_st_Chirality_1>
1_S_16_2_3_8

> <i_mmod_Serial_Number-OPLS-2005>
409

> <i_i_glide_lignum>
405

> <r_i_docking_score>
-4.17886

> <r_i_glide_gscore>
-4.17886

> <r_i_glide_lipo>
-0.190562

> <r_i_glide_hbond>
-1.33501

> <r_i_glide_metal>
0

> <r_i_glide_eburp>
-2.5

> <r_i_glide_evdw>
-11.1061

> <r_i_glide_ecoul>
-8.51236

> <r_i_glide_erotb>
1.84764

> <r_i_glide_esite>
-0.261206

> <r_i_glide_emodel>
-37.5004

> <r_i_glide_energy>
-19.6185

> <r_i_glide_einternal>
0.64561

> <i_i_glide_confnum>
1

> <i_i_glide_posenum>
35

$$$$
C00882
                    3D
 Structure written by MMmdl.
 77 79  0  0  1  0            999 V2000
    1.1916    4.0581    2.8380 N   0  0  0  0  0  0
    2.1289    3.1316    3.2368 C   0  0  0  0  0  0
    1.4489    5.5091    2.5891 C   0  0  2  0  0  0
    0.0151    3.3475    2.7138 C   0  0  0  0  0  0
    1.4345    1.8954    3.3349 C   0  0  0  0  0  0
    3.4561    3.3280    3.4894 N   0  0  0  0  0  0
    0.4965    6.2370    3.3101 O   0  0  0  0  0  0
    1.2434    5.8138    1.1002 C   0  0  1  0  0  0
    0.0994    2.0746    2.9984 N   0  0  0  0  0  0
    2.2145    0.7823    3.7365 C   0  0  0  0  0  0
    4.0581    2.1928    3.8559 C   0  0  0  0  0  0
   -0.3113    7.0180    2.4319 C   0  0  1  0  0  0
   -0.1931    6.3084    1.0821 C   0  0  1  0  0  0
    2.1578    6.7944    0.6475 O   0  0  0  0  0  0
    3.5305    0.9711    3.9902 N   0  0  0  0  0  0
    1.7108   -0.4510    3.8761 N   0  0  0  0  0  0
   -1.7386    7.1170    2.9839 C   0  0  0  0  0  0
   -0.4645    7.1481   -0.0244 O   0  0  0  0  0  0
   -1.7048    7.7549    4.2428 O   0  0  0  0  0  0
   -2.9569    8.7881    4.7450 P   0  0  0  0  0  0
   -2.8093    8.8373    6.4384 O   0  0  0  0  0  0
   -2.6787   10.1432    4.2169 O   0  0  0  0  0  0
   -1.8296    9.6981    7.5283 P   0  0  0  0  0  0
   -1.4624   11.1370    6.6927 O   0  0  0  0  0  0
   -2.6553   10.0658    8.7011 O   0  0  0  0  0  0
   -2.3782   12.2140    6.6050 C   0  0  0  0  0  0
   -1.7962   13.4020    5.7959 C   0  0  0  0  0  0
   -1.6436   12.9636    4.2991 C   0  0  2  0  0  0
   -2.7427   14.6170    5.9360 C   0  0  0  0  0  0
   -0.4202   13.7798    6.3919 C   0  0  0  0  0  0
   -1.1206   14.0568    3.3442 C   0  0  0  0  0  0
   -2.8577   12.4275    3.7937 O   0  0  0  0  0  0
    0.1556   14.4461    3.4903 N   0  0  0  0  0  0
   -1.8717   14.5459    2.5005 O   0  0  0  0  0  0
    0.7993   15.4915    2.7074 C   0  0  0  0  0  0
    0.2701   15.4856    1.2627 C   0  0  0  0  0  0
    1.1051   16.3456    0.3087 C   0  0  0  0  0  0
    1.2937   15.8492   -0.9223 N   0  0  0  0  0  0
    1.5624   17.4293    0.6723 O   0  0  0  0  0  0
    2.1085   16.4861   -1.9480 C   0  0  0  0  0  0
    3.5633   16.0090   -1.8565 C   0  0  0  0  0  0
    4.4851   16.6283   -3.2881 S   0  0  0  0  0  0
    2.4617    5.6849    2.9541 H   0  0  0  0  0  0
   -0.9151    3.8017    2.4041 H   0  0  0  0  0  0
    1.3738    4.9180    0.4909 H   0  0  0  0  0  0
    5.1132    2.2726    4.0728 H   0  0  0  0  0  0
    0.1353    8.0117    2.3661 H   0  0  0  0  0  0
   -0.8633    5.4503    1.0498 H   0  0  0  0  0  0
    1.9523    7.6006    1.0983 H   0  0  0  0  0  0
    2.3105   -1.2101    4.1637 H   0  0  0  0  0  0
    0.7320   -0.6140    3.6878 H   0  0  0  0  0  0
   -2.3803    7.6734    2.3015 H   0  0  0  0  0  0
   -2.1733    6.1237    3.0971 H   0  0  0  0  0  0
   -0.0723    7.9923    0.1544 H   0  0  0  0  0  0
   -3.3141   11.8699    6.1622 H   0  0  0  0  0  0
   -2.6166   12.5150    7.6254 H   0  0  0  0  0  0
   -0.9188   12.1487    4.2601 H   0  0  0  0  0  0
   -2.3625   15.4940    5.4123 H   0  0  0  0  0  0
   -3.7358   14.3998    5.5420 H   0  0  0  0  0  0
   -2.8668   14.9021    6.9812 H   0  0  0  0  0  0
    0.0177   14.6493    5.9023 H   0  0  0  0  0  0
   -0.4987   14.0317    7.4496 H   0  0  0  0  0  0
    0.2895   12.9566    6.3040 H   0  0  0  0  0  0
   -2.6814   12.0306    2.9543 H   0  0  0  0  0  0
    0.7102   13.9729    4.1897 H   0  0  0  0  0  0
    0.6097   16.4580    3.1782 H   0  0  0  0  0  0
    1.8791   15.3322    2.7174 H   0  0  0  0  0  0
    0.2505   14.4614    0.8868 H   0  0  0  0  0  0
   -0.7582   15.8486    1.2415 H   0  0  0  0  0  0
    0.8443   14.9776   -1.1621 H   0  0  0  0  0  0
    1.6970   16.2523   -2.9314 H   0  0  0  0  0  0
    2.0596   17.5696   -1.8258 H   0  0  0  0  0  0
    4.0357   16.3740   -0.9439 H   0  0  0  0  0  0
    3.6153   14.9198   -1.8436 H   0  0  0  0  0  0
    5.6490   16.0575   -2.9646 H   0  0  0  0  0  0
   -4.2380    8.1262    4.4100 O   0  5  0  0  0  0
   -0.5802    8.9300    7.7326 O   0  5  0  0  0  0
  1  2  1  0  0  0
  1  3  1  0  0  0
  1  4  1  0  0  0
  2  5  2  0  0  0
  2  6  1  0  0  0
  3  7  1  0  0  0
  3  8  1  0  0  0
  3 43  1  0  0  0
  4  9  2  0  0  0
  4 44  1  0  0  0
  5 10  1  0  0  0
  5  9  1  0  0  0
  6 11  2  0  0  0
  7 12  1  0  0  0
  8 13  1  0  0  0
  8 14  1  0  0  0
  8 45  1  0  0  0
 10 15  2  0  0  0
 10 16  1  0  0  0
 11 15  1  0  0  0
 11 46  1  0  0  0
 12 17  1  0  0  0
 12 13  1  0  0  0
 12 47  1  0  0  0
 13 18  1  0  0  0
 13 48  1  0  0  0
 14 49  1  0  0  0
 16 50  1  0  0  0
 16 51  1  0  0  0
 17 19  1  0  0  0
 17 52  1  0  0  0
 17 53  1  0  0  0
 18 54  1  0  0  0
 19 20  1  0  0  0
 20 21  1  0  0  0
 20 22  2  0  0  0
 20 76  1  0  0  0
 21 23  1  0  0  0
 23 24  1  0  0  0
 23 25  2  0  0  0
 23 77  1  0  0  0
 24 26  1  0  0  0
 26 27  1  0  0  0
 26 55  1  0  0  0
 26 56  1  0  0  0
 27 28  1  0  0  0
 27 29  1  0  0  0
 27 30  1  0  0  0
 28 31  1  0  0  0
 28 32  1  0  0  0
 28 57  1  0  0  0
 29 58  1  0  0  0
 29 59  1  0  0  0
 29 60  1  0  0  0
 30 61  1  0  0  0
 30 62  1  0  0  0
 30 63  1  0  0  0
 31 33  1  0  0  0
 31 34  2  0  0  0
 32 64  1  0  0  0
 33 35  1  0  0  0
 33 65  1  0  0  0
 35 36  1  0  0  0
 35 66  1  0  0  0
 35 67  1  0  0  0
 36 37  1  0  0  0
 36 68  1  0  0  0
 36 69  1  0  0  0
 37 38  1  0  0  0
 37 39  2  0  0  0
 38 40  1  0  0  0
 38 70  1  0  0  0
 40 41  1  0  0  0
 40 71  1  0  0  0
 40 72  1  0  0  0
 41 42  1  0  0  0
 41 73  1  0  0  0
 41 74  1  0  0  0
 42 75  1  0  0  0
M  CHG  2  76  -1  77  -1
M  END
> <i_ionizer_Ion_state_n>
6

> <i_ionizer_Tot_Q>
-2

> <s_ionizer_Ion_centers>
76_77

> <s_ionizer_Ion_types>
OM_OM

> <s_ionizer_Ion_ctrs_in>
22_26

> <r_ionizer_Ionization_penalty>
0.0019043

> <r_ionizer_Ionization_penalty_charging>
1.49178e-05

> <r_ionizer_Ionization_penalty_neutral>
0.00188938

> <s_st_Chirality_1>
3_R_7_1_8_43

> <s_st_Chirality_2>
8_R_14_3_13_45

> <s_st_Chirality_3>
12_R_7_13_17_47

> <s_st_Chirality_4>
13_R_18_8_12_48

> <s_st_Chirality_5>
28_R_32_31_27_57

> <i_mmod_Serial_Number-OPLS-2005>
352

> <i_i_glide_lignum>
349

> <r_i_docking_score>
-4.17461

> <r_i_glide_gscore>
-4.17461

> <r_i_glide_lipo>
-0.71689

> <r_i_glide_hbond>
-0.325094

> <r_i_glide_metal>
0

> <r_i_glide_eburp>
-2.55872e-17

> <r_i_glide_evdw>
-48.7109

> <r_i_glide_ecoul>
0.657603

> <r_i_glide_erotb>
0.742935

> <r_i_glide_esite>
-0.0444486

> <r_i_glide_emodel>
-63.5464

> <r_i_glide_energy>
-48.0533

> <r_i_glide_einternal>
10.3374

> <i_i_glide_confnum>
289

> <i_i_glide_posenum>
557

$$$$
C05803
                    3D
 Structure written by MMmdl.
 94 94  0  0  1  0            999 V2000
   -1.2532    9.7523   13.0925 C   0  0  0  0  0  0
   -2.6913    9.4918   13.5044 C   0  0  0  0  0  0
   -3.3611    8.3221   13.4505 C   0  0  0  0  0  0
   -4.7989    8.2213   13.9370 C   0  0  0  0  0  0
   -2.7723    7.0231   12.9206 C   0  0  0  0  0  0
   -5.7733    7.7778   12.8348 C   0  0  0  0  0  0
   -3.9207   12.2769    9.7109 C   0  0  0  0  0  0
   -2.9075   12.0830   10.8269 C   0  0  0  0  0  0
   -2.1166   11.0132   11.0532 C   0  0  0  0  0  0
   -1.1308   11.0055   12.2121 C   0  0  0  0  0  0
   -2.1115    9.7488   10.2063 C   0  0  0  0  0  0
   -1.2409   10.0079    7.1897 C   0  0  0  0  0  0
   -2.1794   10.9507    7.9221 C   0  0  0  0  0  0
   -2.3675   12.2662    7.6896 C   0  0  0  0  0  0
   -3.3279   13.0812    8.5430 C   0  0  0  0  0  0
   -1.6627   13.0499    6.5924 C   0  0  0  0  0  0
   -0.4302    6.4672    3.7210 C   0  0  0  0  0  0
   -1.2113    7.5614    4.4271 C   0  0  0  0  0  0
   -1.1224    7.9282    5.7222 C   0  0  0  0  0  0
   -2.0069    9.0304    6.2850 C   0  0  0  0  0  0
   -0.1664    7.3001    6.7254 C   0  0  0  0  0  0
    3.0332    4.3790    2.1110 C   0  0  0  0  0  0
    1.8721    5.2718    2.5247 C   0  0  0  0  0  0
    1.0839    6.0158    1.7218 C   0  0  0  0  0  0
   -0.0227    6.8847    2.2997 C   0  0  0  0  0  0
    1.2129    6.0660    0.2068 C   0  0  0  0  0  0
   -7.2034    7.7108   13.3417 C   0  0  0  0  0  0
   -8.2965    8.2930   12.8071 C   0  0  0  0  0  0
   -9.6676    8.1001   13.4257 C   0  0  0  0  0  0
   -8.2950    9.1732   11.5678 C   0  0  0  0  0  0
    3.1868    3.1228    2.9717 C   0  0  0  0  0  0
    1.9818    2.2497    3.0460 C   0  0  0  0  0  0
    4.3170    2.7836    3.6395 C   0  0  0  0  0  0
    2.0762    1.0162    3.8656 C   0  0  0  0  0  0
    0.9406    2.5343    2.4534 O   0  0  0  0  0  0
    4.4183    1.5610    4.4572 C   0  0  0  0  0  0
    3.2221    0.7026    4.5230 C   0  0  0  0  0  0
    0.9285    0.2527    3.8909 O   0  0  0  0  0  0
    5.4518    1.2712    5.0557 O   0  0  0  0  0  0
    1.0147   -1.0662    4.4152 C   0  0  0  0  0  0
   -0.8259    8.8858   12.5919 H   0  0  0  0  0  0
   -0.6678    9.8847   14.0030 H   0  0  0  0  0  0
   -3.2084   10.3627   13.8808 H   0  0  0  0  0  0
   -4.8543    7.5206   14.7714 H   0  0  0  0  0  0
   -5.1013    9.1908   14.3348 H   0  0  0  0  0  0
   -2.4991    6.3650   13.7454 H   0  0  0  0  0  0
   -3.5058    6.5049   12.3026 H   0  0  0  0  0  0
   -1.8915    7.1773   12.3001 H   0  0  0  0  0  0
   -5.6920    8.4267   11.9657 H   0  0  0  0  0  0
   -5.5013    6.7817   12.4843 H   0  0  0  0  0  0
   -4.2936   11.3249    9.3417 H   0  0  0  0  0  0
   -4.7778   12.8091   10.1247 H   0  0  0  0  0  0
   -2.8327   12.9221   11.5035 H   0  0  0  0  0  0
   -1.2918   11.9013   12.8132 H   0  0  0  0  0  0
   -0.1124   11.0783   11.8275 H   0  0  0  0  0  0
   -3.0118    9.6264    9.6084 H   0  0  0  0  0  0
   -1.2531    9.7463    9.5346 H   0  0  0  0  0  0
   -2.0402    8.8702   10.8479 H   0  0  0  0  0  0
   -0.4972   10.5599    6.6186 H   0  0  0  0  0  0
   -0.6809    9.4505    7.9412 H   0  0  0  0  0  0
   -2.7450   10.4835    8.7153 H   0  0  0  0  0  0
   -4.1372   13.4610    7.9175 H   0  0  0  0  0  0
   -2.8009   13.9579    8.9216 H   0  0  0  0  0  0
   -1.2448   12.4123    5.8156 H   0  0  0  0  0  0
   -2.3668   13.7226    6.1022 H   0  0  0  0  0  0
   -0.8563   13.6511    7.0124 H   0  0  0  0  0  0
    0.4415    6.1712    4.3010 H   0  0  0  0  0  0
   -1.0677    5.5837    3.6756 H   0  0  0  0  0  0
   -1.9109    8.0856    3.7920 H   0  0  0  0  0  0
   -2.8301    8.5874    6.8474 H   0  0  0  0  0  0
   -2.4633    9.5699    5.4542 H   0  0  0  0  0  0
    0.6534    6.7624    6.2527 H   0  0  0  0  0  0
    0.2826    8.0737    7.3488 H   0  0  0  0  0  0
   -0.6995    6.6076    7.3767 H   0  0  0  0  0  0
    2.9595    4.0917    1.0632 H   0  0  0  0  0  0
    3.9411    4.9782    2.1925 H   0  0  0  0  0  0
    1.6851    5.2908    3.5888 H   0  0  0  0  0  0
   -0.8964    6.8459    1.6473 H   0  0  0  0  0  0
    0.3117    7.9229    2.2968 H   0  0  0  0  0  0
    1.7804    5.2307   -0.1991 H   0  0  0  0  0  0
    0.2254    6.0298   -0.2537 H   0  0  0  0  0  0
    1.6977    6.9916   -0.1034 H   0  0  0  0  0  0
   -7.3265    7.1199   14.2380 H   0  0  0  0  0  0
  -10.0837    9.0604   13.7312 H   0  0  0  0  0  0
  -10.3468    7.6462   12.7037 H   0  0  0  0  0  0
   -9.6274    7.4549   14.3040 H   0  0  0  0  0  0
   -8.7986    8.6632   10.7464 H   0  0  0  0  0  0
   -8.8349   10.0984   11.7708 H   0  0  0  0  0  0
   -7.2984    9.4545   11.2346 H   0  0  0  0  0  0
    5.1976    3.4071    3.5994 H   0  0  0  0  0  0
    3.3122   -0.1890    5.1245 H   0  0  0  0  0  0
    0.0321   -1.5353    4.3664 H   0  0  0  0  0  0
    1.7017   -1.6839    3.8352 H   0  0  0  0  0  0
    1.3242   -1.0622    5.4612 H   0  0  0  0  0  0
  1 10  1  0  0  0
  1  2  1  0  0  0
  1 41  1  0  0  0
  1 42  1  0  0  0
  2  3  2  0  0  0
  2 43  1  0  0  0
  3  4  1  0  0  0
  3  5  1  0  0  0
  4  6  1  0  0  0
  4 44  1  0  0  0
  4 45  1  0  0  0
  5 46  1  0  0  0
  5 47  1  0  0  0
  5 48  1  0  0  0
  6 27  1  0  0  0
  6 49  1  0  0  0
  6 50  1  0  0  0
  7  8  1  0  0  0
  7 15  1  0  0  0
  7 51  1  0  0  0
  7 52  1  0  0  0
  8  9  2  0  0  0
  8 53  1  0  0  0
  9 10  1  0  0  0
  9 11  1  0  0  0
 10 54  1  0  0  0
 10 55  1  0  0  0
 11 56  1  0  0  0
 11 57  1  0  0  0
 11 58  1  0  0  0
 12 20  1  0  0  0
 12 13  1  0  0  0
 12 59  1  0  0  0
 12 60  1  0  0  0
 13 14  2  0  0  0
 13 61  1  0  0  0
 14 15  1  0  0  0
 14 16  1  0  0  0
 15 62  1  0  0  0
 15 63  1  0  0  0
 16 64  1  0  0  0
 16 65  1  0  0  0
 16 66  1  0  0  0
 17 25  1  0  0  0
 17 18  1  0  0  0
 17 67  1  0  0  0
 17 68  1  0  0  0
 18 19  2  0  0  0
 18 69  1  0  0  0
 19 21  1  0  0  0
 19 20  1  0  0  0
 20 70  1  0  0  0
 20 71  1  0  0  0
 21 72  1  0  0  0
 21 73  1  0  0  0
 21 74  1  0  0  0
 22 23  1  0  0  0
 22 31  1  0  0  0
 22 75  1  0  0  0
 22 76  1  0  0  0
 23 24  2  0  0  0
 23 77  1  0  0  0
 24 25  1  0  0  0
 24 26  1  0  0  0
 25 78  1  0  0  0
 25 79  1  0  0  0
 26 80  1  0  0  0
 26 81  1  0  0  0
 26 82  1  0  0  0
 27 28  2  0  0  0
 27 83  1  0  0  0
 28 29  1  0  0  0
 28 30  1  0  0  0
 29 84  1  0  0  0
 29 85  1  0  0  0
 29 86  1  0  0  0
 30 87  1  0  0  0
 30 88  1  0  0  0
 30 89  1  0  0  0
 31 32  1  0  0  0
 31 33  2  0  0  0
 32 34  1  0  0  0
 32 35  2  0  0  0
 33 36  1  0  0  0
 33 90  1  0  0  0
 34 37  2  0  0  0
 34 38  1  0  0  0
 36 39  2  0  0  0
 36 37  1  0  0  0
 37 91  1  0  0  0
 38 40  1  0  0  0
 40 92  1  0  0  0
 40 93  1  0  0  0
 40 94  1  0  0  0
M  END
> <i_ionizer_Ion_state_n>
0

> <i_ionizer_Tot_Q>
0

> <s_ionizer_Ion_centers>


> <s_ionizer_Ion_types>


> <s_ionizer_Ion_ctrs_in>


> <r_ionizer_Ionization_penalty>
0

> <r_ionizer_Ionization_penalty_charging>
0

> <r_ionizer_Ionization_penalty_neutral>
0

> <s_st_EZ_1>
1_2_3_4_E

> <s_st_EZ_2>
7_8_9_10_E

> <s_st_EZ_3>
12_13_14_15_E

> <s_st_EZ_4>
17_18_19_20_E

> <s_st_EZ_5>
22_23_24_25_E

> <i_mmod_Serial_Number-OPLS-2005>
794

> <i_i_glide_lignum>
785

> <r_i_docking_score>
-4.173

> <r_i_glide_gscore>
-4.173

> <r_i_glide_lipo>
-1.79205

> <r_i_glide_hbond>
0

> <r_i_glide_metal>
0

> <r_i_glide_eburp>
0

> <r_i_glide_evdw>
-36.0623

> <r_i_glide_ecoul>
0.0468944

> <r_i_glide_erotb>
1.3457

> <r_i_glide_esite>
-0.846362

> <r_i_glide_emodel>
-46.0054

> <r_i_glide_energy>
-36.0154

> <r_i_glide_einternal>
13.593

> <i_i_glide_confnum>
409

> <i_i_glide_posenum>
698

$$$$
C02501
                    3D
 Structure written by MMmdl.
 15 14  0  0  1  0            999 V2000
    2.5033    2.0606    3.4348 C   0  0  0  0  0  0
    2.2338    0.7385    3.5284 C   0  0  0  0  0  0
    2.2303    2.9523    2.3154 C   0  0  0  0  0  0
    1.5567   -0.2132    2.4737 C   0  0  0  0  0  0
    2.5824    0.1291    4.6696 O   0  0  0  0  0  0
    1.1089    3.6855    2.1783 C   0  0  0  0  0  0
    0.9619    0.3011    1.5028 O   0  0  0  0  0  0
   -0.1006    3.7416    3.1492 C   0  0  0  0  0  0
   -1.1431    4.2604    2.6945 O   0  0  0  0  0  0
    2.9789    2.5040    4.2981 H   0  0  0  0  0  0
    2.9546    3.0558    1.5251 H   0  0  0  0  0  0
    2.9710   -0.6969    4.4164 H   0  0  0  0  0  0
    1.0308    4.3075    1.2994 H   0  0  0  0  0  0
    1.6788   -1.4367    2.7097 O   0  5  0  0  0  0
    0.1010    3.2968    4.3000 O   0  5  0  0  0  0
  1  2  2  0  0  0
  1  3  1  0  0  0
  1 10  1  0  0  0
  2  4  1  0  0  0
  2  5  1  0  0  0
  3  6  2  0  0  0
  3 11  1  0  0  0
  4  7  2  0  0  0
  4 14  1  0  0  0
  5 12  1  0  0  0
  6  8  1  0  0  0
  6 13  1  0  0  0
  8  9  2  0  0  0
  8 15  1  0  0  0
M  CHG  2  14  -1  15  -1
M  END
> <i_ionizer_Ion_state_n>
3

> <i_ionizer_Tot_Q>
-2

> <s_ionizer_Ion_centers>
14_15

> <s_ionizer_Ion_types>
OM_OM

> <s_ionizer_Ion_ctrs_in>
7_10

> <r_ionizer_Ionization_penalty>
0.00118438

> <r_ionizer_Ionization_penalty_charging>
0.00118438

> <r_ionizer_Ionization_penalty_neutral>
0

> <s_st_EZ_1>
3_1_2_5_E

> <i_mmod_Serial_Number-OPLS-2005>
493

> <i_i_glide_lignum>
488

> <r_i_docking_score>
-4.16287

> <r_i_glide_gscore>
-4.16287

> <r_i_glide_lipo>
-0.266628

> <r_i_glide_hbond>
-1.72938

> <r_i_glide_metal>
0

> <r_i_glide_eburp>
-2.9

> <r_i_glide_evdw>
-10.5701

> <r_i_glide_ecoul>
-9.44631

> <r_i_glide_erotb>
2.80172

> <r_i_glide_esite>
-0.278349

> <r_i_glide_emodel>
-51.8132

> <r_i_glide_energy>
-20.0164

> <r_i_glide_einternal>
7.09489

> <i_i_glide_confnum>
11

> <i_i_glide_posenum>
846

$$$$
C00160
                    3D
 Structure written by MMmdl.
  8  7  0  0  1  0            999 V2000
    0.8000    2.6091    3.5008 C   0  0  0  0  0  0
    1.3873    1.3060    4.0479 C   0  0  0  0  0  0
    0.0990    3.3004    4.2732 O   0  0  0  0  0  0
    0.9013    0.1906    3.3258 O   0  0  0  0  0  0
    2.4760    1.3276    3.9874 H   0  0  0  0  0  0
    1.1173    1.2039    5.0991 H   0  0  0  0  0  0
    1.2932   -0.5909    3.6826 H   0  0  0  0  0  0
    1.0827    2.9051    2.3190 O   0  5  0  0  0  0
  1  2  1  0  0  0
  1  3  2  0  0  0
  1  8  1  0  0  0
  2  4  1  0  0  0
  2  5  1  0  0  0
  2  6  1  0  0  0
  4  7  1  0  0  0
M  CHG  1   8  -1
M  END
> <i_ionizer_Ion_state_n>
1

> <i_ionizer_Tot_Q>
-1

> <s_ionizer_Ion_centers>
8

> <s_ionizer_Ion_types>
OM

> <s_ionizer_Ion_ctrs_in>
3

> <r_ionizer_Ionization_penalty>
0.00059219

> <r_ionizer_Ionization_penalty_charging>
0.00059219

> <r_ionizer_Ionization_penalty_neutral>
0

> <i_mmod_Serial_Number-OPLS-2005>
116

> <i_i_glide_lignum>
114

> <r_i_docking_score>
-4.15543

> <r_i_glide_gscore>
-4.15543

> <r_i_glide_lipo>
-0.0720546

> <r_i_glide_hbond>
-0.7

> <r_i_glide_metal>
0

> <r_i_glide_eburp>
-2.5

> <r_i_glide_evdw>
-6.43228

> <r_i_glide_ecoul>
-4.56469

> <r_i_glide_erotb>
0

> <r_i_glide_esite>
0.0876712

> <r_i_glide_emodel>
-25.3963

> <r_i_glide_energy>
-10.997

> <r_i_glide_einternal>
0.563565

> <i_i_glide_confnum>
1

> <i_i_glide_posenum>
142

$$$$
C02727
                    3D
 Structure written by MMmdl.
 29 28  0  0  1  0            999 V2000
    3.0561   -0.6678    2.2484 C   0  0  0  0  0  0
    2.7038    0.3246    3.3812 C   0  0  1  0  0  0
    2.8762   -0.0951    0.8302 C   0  0  0  0  0  0
    1.2475    0.8056    3.3007 C   0  0  0  0  0  0
    3.7290    1.1587    0.5893 C   0  0  0  0  0  0
    0.5002    0.2607    2.4572 O   0  0  0  0  0  0
    5.2298    0.8894    0.7642 C   0  0  0  0  0  0
    5.7001   -0.0663   -0.2290 N   0  0  0  0  0  0
    6.9916   -0.3004   -0.4995 C   0  0  0  0  0  0
    7.2800   -1.3717   -1.5452 C   0  0  0  0  0  0
    7.9186    0.2969    0.0462 O   0  0  0  0  0  0
    4.0955   -0.9771    2.3665 H   0  0  0  0  0  0
    2.4636   -1.5788    2.3482 H   0  0  0  0  0  0
    3.3776    1.1816    3.3252 H   0  0  0  0  0  0
    3.1377   -0.8497    0.0874 H   0  0  0  0  0  0
    1.8247    0.1450    0.6675 H   0  0  0  0  0  0
    2.6942    0.3784    5.4190 H   0  0  0  0  0  0
    2.2643   -1.0802    4.7865 H   0  0  0  0  0  0
    3.5425    1.5365   -0.4169 H   0  0  0  0  0  0
    3.4180    1.9449    1.2787 H   0  0  0  0  0  0
    5.7924    1.8191    0.6643 H   0  0  0  0  0  0
    5.4263    0.4992    1.7642 H   0  0  0  0  0  0
    5.0008   -0.5805   -0.7446 H   0  0  0  0  0  0
    8.3540   -1.4877   -1.6942 H   0  0  0  0  0  0
    6.8738   -2.3327   -1.2288 H   0  0  0  0  0  0
    6.8303   -1.1022   -2.5012 H   0  0  0  0  0  0
    2.9001   -0.3001    4.6999 N   0  3  0  0  0  0
    3.8533   -0.6195    4.7911 H   0  0  0  0  0  0
    0.8993    1.6986    4.1031 O   0  5  0  0  0  0
  1  2  1  0  0  0
  1  3  1  0  0  0
  1 12  1  0  0  0
  1 13  1  0  0  0
  2  4  1  0  0  0
  2 14  1  0  0  0
  2 27  1  0  0  0
  3  5  1  0  0  0
  3 15  1  0  0  0
  3 16  1  0  0  0
  4  6  2  0  0  0
  4 29  1  0  0  0
  5  7  1  0  0  0
  5 19  1  0  0  0
  5 20  1  0  0  0
  7  8  1  0  0  0
  7 21  1  0  0  0
  7 22  1  0  0  0
  8  9  1  0  0  0
  8 23  1  0  0  0
  9 10  1  0  0  0
  9 11  2  0  0  0
 10 24  1  0  0  0
 10 25  1  0  0  0
 10 26  1  0  0  0
 17 27  1  0  0  0
 18 27  1  0  0  0
 27 28  1  0  0  0
M  CHG  2  27   1  29  -1
M  END
> <i_ionizer_Ion_state_n>
3

> <i_ionizer_Tot_Q>
0

> <s_ionizer_Ion_centers>
27_29

> <s_ionizer_Ion_types>
N5_OM

> <s_ionizer_Ion_ctrs_in>
5_7

> <r_ionizer_Ionization_penalty>
0.000779521

> <r_ionizer_Ionization_penalty_charging>
0.000779521

> <r_ionizer_Ionization_penalty_neutral>
0

> <s_st_Chirality_1>
2_S_27_4_1_14

> <i_mmod_Serial_Number-OPLS-2005>
507

> <i_i_glide_lignum>
502

> <r_i_docking_score>
-4.14582

> <r_i_glide_gscore>
-4.14582

> <r_i_glide_lipo>
-0.505135

> <r_i_glide_hbond>
-0.5388

> <r_i_glide_metal>
0

> <r_i_glide_eburp>
-2.36191

> <r_i_glide_evdw>
-21.9476

> <r_i_glide_ecoul>
-6.22287

> <r_i_glide_erotb>
2.58052

> <r_i_glide_esite>
-0.942405

> <r_i_glide_emodel>
-50.0457

> <r_i_glide_energy>
-28.1704

> <r_i_glide_einternal>
5.09416

> <i_i_glide_confnum>
146

> <i_i_glide_posenum>
82

$$$$
C00490
                    3D
 Structure written by MMmdl.
 13 12  0  0  1  0            999 V2000
    1.4065    2.2150    2.6192 C   0  0  0  0  0  0
    1.2920    0.9290    3.4310 C   0  0  0  0  0  0
    0.6540    3.4534    3.1892 C   0  0  0  0  0  0
    2.1012    2.2733    1.4699 C   0  0  0  0  0  0
    0.9493   -0.3159    2.6058 C   0  0  0  0  0  0
    0.6901    4.4894    2.4889 O   0  0  0  0  0  0
    1.7006   -1.3115    2.7025 O   0  0  0  0  0  0
    2.2177    0.7346    3.9739 H   0  0  0  0  0  0
    0.5218    1.0725    4.1898 H   0  0  0  0  0  0
    2.1677    3.1905    0.9031 H   0  0  0  0  0  0
    2.6132    1.4046    1.0834 H   0  0  0  0  0  0
    0.0987    3.2994    4.2993 O   0  5  0  0  0  0
   -0.0808   -0.2562    1.8988 O   0  5  0  0  0  0
  1  2  1  0  0  0
  1  3  1  0  0  0
  1  4  2  0  0  0
  2  5  1  0  0  0
  2  8  1  0  0  0
  2  9  1  0  0  0
  3  6  2  0  0  0
  3 12  1  0  0  0
  4 10  1  0  0  0
  4 11  1  0  0  0
  5  7  2  0  0  0
  5 13  1  0  0  0
M  CHG  2  12  -1  13  -1
M  END
> <i_ionizer_Ion_state_n>
3

> <i_ionizer_Tot_Q>
-2

> <s_ionizer_Ion_centers>
12_13

> <s_ionizer_Ion_types>
OM_OM

> <s_ionizer_Ion_ctrs_in>
6_8

> <r_ionizer_Ionization_penalty>
0.00118438

> <r_ionizer_Ionization_penalty_charging>
0.00118438

> <r_ionizer_Ionization_penalty_neutral>
0

> <i_mmod_Serial_Number-OPLS-2005>
257

> <i_i_glide_lignum>
255

> <r_i_docking_score>
-4.13655

> <r_i_glide_gscore>
-4.13655

> <r_i_glide_lipo>
-0.239031

> <r_i_glide_hbond>
-1.24334

> <r_i_glide_metal>
0

> <r_i_glide_eburp>
-2.5

> <r_i_glide_evdw>
-10.5446

> <r_i_glide_ecoul>
-7.7287

> <r_i_glide_erotb>
1.91687

> <r_i_glide_esite>
-0.454604

> <r_i_glide_emodel>
-46.7784

> <r_i_glide_energy>
-18.2733

> <r_i_glide_einternal>
0.975506

> <i_i_glide_confnum>
2

> <i_i_glide_posenum>
5

$$$$
C05938
                    3D
 Structure written by MMmdl.
 19 18  0  0  1  0            999 V2000
    3.2256   -0.6216    1.5401 C   0  0  0  0  0  0
    2.9042    0.1785    2.8224 C   0  0  1  0  0  0
    4.5903   -0.2776    0.9134 C   0  0  2  0  0  0
    1.4308    0.0581    3.2289 C   0  0  0  0  0  0
    4.5848    1.1228    0.3014 C   0  0  0  0  0  0
    4.8943   -1.2306   -0.0855 O   0  0  0  0  0  0
    1.0333    0.7414    4.1991 O   0  0  0  0  0  0
    5.6040    1.8114    0.2881 O   0  0  0  0  0  0
    3.1987   -1.6883    1.7662 H   0  0  0  0  0  0
    2.4360   -0.4549    0.8057 H   0  0  0  0  0  0
    3.1461    1.2297    2.6603 H   0  0  0  0  0  0
    5.3736   -0.3014    1.6712 H   0  0  0  0  0  0
    3.5063    0.2577    4.7661 H   0  0  0  0  0  0
    3.4880   -1.2638    4.1349 H   0  0  0  0  0  0
    3.6326    1.4597   -0.1090 H   0  0  0  0  0  0
    4.3452   -1.0566   -0.8357 H   0  0  0  0  0  0
    3.7192   -0.2981    3.9502 N   0  3  0  0  0  0
    4.6996   -0.2149    3.7245 H   0  0  0  0  0  0
    0.7180   -0.6995    2.5368 O   0  5  0  0  0  0
  1  2  1  0  0  0
  1  3  1  0  0  0
  1  9  1  0  0  0
  1 10  1  0  0  0
  2  4  1  0  0  0
  2 11  1  0  0  0
  2 17  1  0  0  0
  3  5  1  0  0  0
  3  6  1  0  0  0
  3 12  1  0  0  0
  4  7  2  0  0  0
  4 19  1  0  0  0
  5  8  2  0  0  0
  5 15  1  0  0  0
  6 16  1  0  0  0
 13 17  1  0  0  0
 14 17  1  0  0  0
 17 18  1  0  0  0
M  CHG  2  17   1  19  -1
M  END
> <i_ionizer_Ion_state_n>
3

> <i_ionizer_Tot_Q>
0

> <s_ionizer_Ion_centers>
17_19

> <s_ionizer_Ion_types>
N5_OM

> <s_ionizer_Ion_ctrs_in>
5_8

> <r_ionizer_Ionization_penalty>
0.000779521

> <r_ionizer_Ionization_penalty_charging>
0.000779521

> <r_ionizer_Ionization_penalty_neutral>
0

> <s_st_Chirality_1>
2_S_17_4_1_11

> <s_st_Chirality_2>
3_R_6_5_1_12

> <i_mmod_Serial_Number-OPLS-2005>
832

> <i_i_glide_lignum>
820

> <r_i_docking_score>
-4.12325

> <r_i_glide_gscore>
-4.12325

> <r_i_glide_lipo>
-0.255076

> <r_i_glide_hbond>
-0.506529

> <r_i_glide_metal>
0

> <r_i_glide_eburp>
-2.5

> <r_i_glide_evdw>
-14.3207

> <r_i_glide_ecoul>
-8.13465

> <r_i_glide_erotb>
1.54011

> <r_i_glide_esite>
-0.442631

> <r_i_glide_emodel>
-38.1671

> <r_i_glide_energy>
-22.4554

> <r_i_glide_einternal>
5.50217

> <i_i_glide_confnum>
2

> <i_i_glide_posenum>
279

$$$$
C04295
                    3D
 Structure written by MMmdl.
 51 54  0  0  1  0            999 V2000
    1.4914    2.3868    2.9579 C   0  0  2  0  0  0
    1.8160    3.5792    2.0026 C   0  0  1  0  0  0
    2.3290    1.1580    2.5489 C   0  0  1  0  0  0
   -0.0154    2.0540    2.9603 C   0  0  0  0  0  0
    0.9971    4.8646    2.3821 C   0  0  2  0  0  0
    3.3509    3.8030    1.8346 C   0  0  0  0  0  0
    3.8443    1.4126    2.5651 C   0  0  2  0  0  0
    2.1510   -0.1608    3.3094 C   0  0  0  0  0  0
   -0.9154    3.2454    2.7000 C   0  0  0  0  0  0
   -0.4957    4.4964    2.4333 C   0  0  0  0  0  0
    1.1904    5.9750    1.3152 C   0  0  0  0  0  0
    1.4454    5.4027    3.7687 C   0  0  0  0  0  0
    4.1375    2.5096    1.5242 C   0  0  0  0  0  0
    4.3360    0.0010    2.1823 C   0  0  2  0  0  0
    4.3983    1.8198    3.9619 C   0  0  0  0  0  0
    3.4243   -0.9628    2.9721 C   0  0  0  0  0  0
   -1.5106    5.5291    1.9444 C   0  0  0  0  0  0
    0.3666    7.2547    1.5774 C   0  0  0  0  0  0
    5.7079   -0.2260    2.4365 O   0  0  0  0  0  0
   -1.0752    6.9980    2.0697 C   0  0  2  0  0  0
   -1.2337    7.4280    3.4070 O   0  0  0  0  0  0
    1.7606    2.6527    3.9772 H   0  0  0  0  0  0
    1.4662    3.2736    1.0144 H   0  0  0  0  0  0
    2.0473    0.9354    1.5167 H   0  0  0  0  0  0
   -0.2359    1.3324    2.1730 H   0  0  0  0  0  0
   -0.2998    1.5822    3.9012 H   0  0  0  0  0  0
    3.5409    4.5038    1.0230 H   0  0  0  0  0  0
    3.7736    4.2647    2.7242 H   0  0  0  0  0  0
    2.0872    0.0190    4.3832 H   0  0  0  0  0  0
    1.2441   -0.6863    3.0089 H   0  0  0  0  0  0
   -1.9716    3.0228    2.6529 H   0  0  0  0  0  0
    2.2371    6.2661    1.2378 H   0  0  0  0  0  0
    0.9179    5.5771    0.3365 H   0  0  0  0  0  0
    0.8874    6.2809    4.0793 H   0  0  0  0  0  0
    1.3038    4.6745    4.5650 H   0  0  0  0  0  0
    2.4928    5.6997    3.7740 H   0  0  0  0  0  0
    3.8650    2.1605    0.5273 H   0  0  0  0  0  0
    5.2068    2.7204    1.4877 H   0  0  0  0  0  0
    4.1690   -0.1628    1.1163 H   0  0  0  0  0  0
    3.9494    2.7322    4.3495 H   0  0  0  0  0  0
    4.2367    1.0491    4.7150 H   0  0  0  0  0  0
    5.4724    2.0010    3.9169 H   0  0  0  0  0  0
    3.9008   -1.2966    3.8949 H   0  0  0  0  0  0
    3.1989   -1.8532    2.3842 H   0  0  0  0  0  0
   -1.6712    5.3195    0.8860 H   0  0  0  0  0  0
   -2.4753    5.3691    2.4281 H   0  0  0  0  0  0
    0.8961    7.8918    2.2875 H   0  0  0  0  0  0
    0.3321    7.8327    0.6533 H   0  0  0  0  0  0
    5.8357   -0.2649    3.3720 H   0  0  0  0  0  0
   -1.7578    7.6117    1.4805 H   0  0  0  0  0  0
   -1.1484    8.3687    3.4336 H   0  0  0  0  0  0
  1  2  1  0  0  0
  1  3  1  0  0  0
  1  4  1  0  0  0
  1 22  1  0  0  0
  2  5  1  0  0  0
  2  6  1  0  0  0
  2 23  1  0  0  0
  3  7  1  0  0  0
  3  8  1  0  0  0
  3 24  1  0  0  0
  4  9  1  0  0  0
  4 25  1  0  0  0
  4 26  1  0  0  0
  5 10  1  0  0  0
  5 11  1  0  0  0
  5 12  1  0  0  0
  6 13  1  0  0  0
  6 27  1  0  0  0
  6 28  1  0  0  0
  7 14  1  0  0  0
  7 15  1  0  0  0
  7 13  1  0  0  0
  8 16  1  0  0  0
  8 29  1  0  0  0
  8 30  1  0  0  0
  9 10  2  0  0  0
  9 31  1  0  0  0
 10 17  1  0  0  0
 11 18  1  0  0  0
 11 32  1  0  0  0
 11 33  1  0  0  0
 12 34  1  0  0  0
 12 35  1  0  0  0
 12 36  1  0  0  0
 13 37  1  0  0  0
 13 38  1  0  0  0
 14 19  1  0  0  0
 14 16  1  0  0  0
 14 39  1  0  0  0
 15 40  1  0  0  0
 15 41  1  0  0  0
 15 42  1  0  0  0
 16 43  1  0  0  0
 16 44  1  0  0  0
 17 20  1  0  0  0
 17 45  1  0  0  0
 17 46  1  0  0  0
 18 20  1  0  0  0
 18 47  1  0  0  0
 18 48  1  0  0  0
 19 49  1  0  0  0
 20 21  1  0  0  0
 20 50  1  0  0  0
 21 51  1  0  0  0
M  END
> <i_ionizer_Ion_state_n>
0

> <i_ionizer_Tot_Q>
0

> <s_ionizer_Ion_centers>


> <s_ionizer_Ion_types>


> <s_ionizer_Ion_ctrs_in>


> <r_ionizer_Ionization_penalty>
0

> <r_ionizer_Ionization_penalty_charging>
0

> <r_ionizer_Ionization_penalty_neutral>
0

> <s_st_Chirality_1>
1_R_3_2_4_22

> <s_st_Chirality_2>
2_S_5_1_6_23

> <s_st_Chirality_3>
3_S_7_1_8_24

> <s_st_Chirality_4>
5_R_10_2_11_12

> <s_st_Chirality_5>
7_S_14_3_13_15

> <s_st_Chirality_6>
14_S_19_7_16_39

> <s_st_Chirality_7>
20_S_21_17_18_50

> <s_st_EZ_1>
4_9_10_5_Z

> <i_mmod_Serial_Number-OPLS-2005>
589

> <i_i_glide_lignum>
583

> <r_i_docking_score>
-4.11963

> <r_i_glide_gscore>
-4.11963

> <r_i_glide_lipo>
-1.74224

> <r_i_glide_hbond>
0

> <r_i_glide_metal>
0

> <r_i_glide_eburp>
-1.5875

> <r_i_glide_evdw>
-4.20096

> <r_i_glide_ecoul>
-0.599622

> <r_i_glide_erotb>
0

> <r_i_glide_esite>
-0.393857

> <r_i_glide_emodel>
-10.9226

> <r_i_glide_energy>
-4.80058

> <r_i_glide_einternal>
0.588127

> <i_i_glide_confnum>
1

> <i_i_glide_posenum>
275

$$$$
C00523
                    3D
 Structure written by MMmdl.
 51 54  0  0  1  0            999 V2000
    1.6764    2.2323    2.6945 C   0  0  2  0  0  0
    2.0470    3.4273    1.7563 C   0  0  1  0  0  0
    2.4136    0.9763    2.1896 C   0  0  1  0  0  0
    0.1530    2.0204    2.7276 C   0  0  0  0  0  0
    1.3077    4.7584    2.1374 C   0  0  2  0  0  0
    3.5912    3.5758    1.5801 C   0  0  0  0  0  0
    3.9422    1.1423    2.1963 C   0  0  2  0  0  0
    2.1578   -0.3948    2.8323 C   0  0  0  0  0  0
   -0.5819    3.2992    3.1416 C   0  0  0  0  0  0
   -0.2258    4.4714    2.2091 C   0  0  1  0  0  0
    1.5568    5.8326    1.0260 C   0  0  0  0  0  0
    1.8295    5.3001    3.4987 C   0  0  0  0  0  0
    4.3019    2.2564    1.1953 C   0  0  0  0  0  0
    4.3394   -0.2753    1.7964 C   0  0  0  0  0  0
    4.5637    1.4184    3.5917 C   0  0  0  0  0  0
    3.2898   -1.2795    2.2697 C   0  0  0  0  0  0
   -1.0766    5.7260    2.5270 C   0  0  0  0  0  0
    0.3408    6.7101    0.6558 C   0  0  0  0  0  0
    5.3654   -0.5737    1.1877 O   0  0  0  0  0  0
   -0.5424    7.0170    1.8698 C   0  0  1  0  0  0
   -1.6213    7.8428    1.4841 O   0  0  0  0  0  0
    1.9974    2.4418    3.7131 H   0  0  0  0  0  0
    1.6725    3.1498    0.7690 H   0  0  0  0  0  0
    2.0957    0.8582    1.1495 H   0  0  0  0  0  0
   -0.5250    4.1528    1.2085 H   0  0  0  0  0  0
   -0.1994    1.7004    1.7461 H   0  0  0  0  0  0
   -0.1010    1.2196    3.4226 H   0  0  0  0  0  0
    3.8176    4.3190    0.8164 H   0  0  0  0  0  0
    4.0410    3.9567    2.4947 H   0  0  0  0  0  0
    2.2173   -0.3341    3.9196 H   0  0  0  0  0  0
    1.1733   -0.7874    2.5764 H   0  0  0  0  0  0
   -1.6570    3.1185    3.1123 H   0  0  0  0  0  0
   -0.3458    3.5463    4.1768 H   0  0  0  0  0  0
    2.3861    6.4778    1.3186 H   0  0  0  0  0  0
    1.8843    5.3584    0.1004 H   0  0  0  0  0  0
    1.2995    6.1930    3.8223 H   0  0  0  0  0  0
    1.7297    4.5753    4.3044 H   0  0  0  0  0  0
    2.8812    5.5789    3.4502 H   0  0  0  0  0  0
    4.0097    1.9666    0.1847 H   0  0  0  0  0  0
    5.3812    2.4109    1.1673 H   0  0  0  0  0  0
    5.6464    1.5271    3.5163 H   0  0  0  0  0  0
    4.1896    2.3313    4.0513 H   0  0  0  0  0  0
    4.3750    0.6112    4.3005 H   0  0  0  0  0  0
    3.6954   -1.9572    3.0211 H   0  0  0  0  0  0
    2.9464   -1.8665    1.4175 H   0  0  0  0  0  0
   -2.0972    5.5282    2.1954 H   0  0  0  0  0  0
   -1.1432    5.8808    3.6046 H   0  0  0  0  0  0
    0.6845    7.6340    0.1892 H   0  0  0  0  0  0
   -0.2579    6.1977   -0.0990 H   0  0  0  0  0  0
    0.0472    7.5818    2.5918 H   0  0  0  0  0  0
   -1.2828    8.6962    1.2600 H   0  0  0  0  0  0
  1  2  1  0  0  0
  1  3  1  0  0  0
  1  4  1  0  0  0
  1 22  1  0  0  0
  2  5  1  0  0  0
  2  6  1  0  0  0
  2 23  1  0  0  0
  3  7  1  0  0  0
  3  8  1  0  0  0
  3 24  1  0  0  0
  4  9  1  0  0  0
  4 26  1  0  0  0
  4 27  1  0  0  0
  5 10  1  0  0  0
  5 11  1  0  0  0
  5 12  1  0  0  0
  6 13  1  0  0  0
  6 28  1  0  0  0
  6 29  1  0  0  0
  7 14  1  0  0  0
  7 15  1  0  0  0
  7 13  1  0  0  0
  8 16  1  0  0  0
  8 30  1  0  0  0
  8 31  1  0  0  0
  9 10  1  0  0  0
  9 32  1  0  0  0
  9 33  1  0  0  0
 10 17  1  0  0  0
 10 25  1  0  0  0
 11 18  1  0  0  0
 11 34  1  0  0  0
 11 35  1  0  0  0
 12 36  1  0  0  0
 12 37  1  0  0  0
 12 38  1  0  0  0
 13 39  1  0  0  0
 13 40  1  0  0  0
 14 19  2  0  0  0
 14 16  1  0  0  0
 15 41  1  0  0  0
 15 42  1  0  0  0
 15 43  1  0  0  0
 16 44  1  0  0  0
 16 45  1  0  0  0
 17 20  1  0  0  0
 17 46  1  0  0  0
 17 47  1  0  0  0
 18 20  1  0  0  0
 18 48  1  0  0  0
 18 49  1  0  0  0
 20 21  1  0  0  0
 20 50  1  0  0  0
 21 51  1  0  0  0
M  END
> <i_ionizer_Ion_state_n>
0

> <i_ionizer_Tot_Q>
0

> <s_ionizer_Ion_centers>


> <s_ionizer_Ion_types>


> <s_ionizer_Ion_ctrs_in>


> <r_ionizer_Ionization_penalty>
0

> <r_ionizer_Ionization_penalty_charging>
0

> <r_ionizer_Ionization_penalty_neutral>
0

> <s_st_Chirality_1>
1_R_3_2_4_22

> <s_st_Chirality_2>
2_S_5_1_6_23

> <s_st_Chirality_3>
3_S_7_1_8_24

> <s_st_Chirality_4>
5_S_2_10_11_12

> <s_st_Chirality_5>
7_S_14_3_13_15

> <s_st_Chirality_6>
10_S_5_17_9_25

> <s_st_Chirality_7>
20_R_21_17_18_50

> <i_mmod_Serial_Number-OPLS-2005>
267

> <i_i_glide_lignum>
265

> <r_i_docking_score>
-4.11193

> <r_i_glide_gscore>
-4.11193

> <r_i_glide_lipo>
-1.6487

> <r_i_glide_hbond>
0

> <r_i_glide_metal>
0

> <r_i_glide_eburp>
-1.5875

> <r_i_glide_evdw>
-1.86724

> <r_i_glide_ecoul>
-0.303829

> <r_i_glide_erotb>
0

> <r_i_glide_esite>
-0.695972

> <r_i_glide_emodel>
-2.60471

> <r_i_glide_energy>
-2.17107

> <r_i_glide_einternal>
0.4986

> <i_i_glide_confnum>
1

> <i_i_glide_posenum>
344

$$$$
C00058
                    3D
 Structure written by MMmdl.
  4  3  0  0  1  0            999 V2000
    1.0039   -0.2999    2.3910 C   0  0  0  0  0  0
   -0.1457   -0.2995    1.9001 O   0  0  0  0  0  0
    1.4736    0.7261    2.5791 H   0  0  0  0  0  0
    1.6999   -1.2911    2.7003 O   0  5  0  0  0  0
  1  2  2  0  0  0
  1  3  1  0  0  0
  1  4  1  0  0  0
M  CHG  1   4  -1
M  END
> <i_ionizer_Ion_state_n>
1

> <i_ionizer_Tot_Q>
-1

> <s_ionizer_Ion_centers>
4

> <s_ionizer_Ion_types>
OM

> <s_ionizer_Ion_ctrs_in>
2

> <r_ionizer_Ionization_penalty>
0.00059219

> <r_ionizer_Ionization_penalty_charging>
0.00059219

> <r_ionizer_Ionization_penalty_neutral>
0

> <i_mmod_Serial_Number-OPLS-2005>
40

> <i_i_glide_lignum>
39

> <r_i_docking_score>
-4.10963

> <r_i_glide_gscore>
-4.10963

> <r_i_glide_lipo>
0

> <r_i_glide_hbond>
-0.599073

> <r_i_glide_metal>
0

> <r_i_glide_eburp>
-2.5

> <r_i_glide_evdw>
-3.91378

> <r_i_glide_ecoul>
-4.0497

> <r_i_glide_erotb>
0

> <r_i_glide_esite>
-0.292483

> <r_i_glide_emodel>
-17.0157

> <r_i_glide_energy>
-7.96348

> <r_i_glide_einternal>
0

> <i_i_glide_confnum>
1

> <i_i_glide_posenum>
846

$$$$
C00149
                    3D
 Structure written by MMmdl.
 13 12  0  0  1  0            999 V2000
    2.2025    1.1655    2.5073 C   0  0  1  0  0  0
    1.4580    2.5264    2.5727 C   0  0  0  0  0  0
    1.2405   -0.0259    2.3523 C   0  0  0  0  0  0
    3.1502    1.1394    1.4531 O   0  0  0  0  0  0
    0.5101    2.6469    3.7728 C   0  0  0  0  0  0
    0.0875    0.1874    1.9148 O   0  0  0  0  0  0
   -0.1585    3.6988    3.8857 O   0  0  0  0  0  0
    2.7468    1.0093    3.4394 H   0  0  0  0  0  0
    2.1806    3.3432    2.6122 H   0  0  0  0  0  0
    0.8649    2.6778    1.6701 H   0  0  0  0  0  0
    2.6634    1.1741    0.6430 H   0  0  0  0  0  0
    1.6737   -1.1469    2.7042 O   0  5  0  0  0  0
    0.4999    1.6957    4.5854 O   0  5  0  0  0  0
  1  2  1  0  0  0
  1  3  1  0  0  0
  1  4  1  0  0  0
  1  8  1  0  0  0
  2  5  1  0  0  0
  2  9  1  0  0  0
  2 10  1  0  0  0
  3  6  2  0  0  0
  3 12  1  0  0  0
  4 11  1  0  0  0
  5  7  2  0  0  0
  5 13  1  0  0  0
M  CHG  2  12  -1  13  -1
M  END
> <i_ionizer_Ion_state_n>
3

> <i_ionizer_Tot_Q>
-2

> <s_ionizer_Ion_centers>
12_13

> <s_ionizer_Ion_types>
OM_OM

> <s_ionizer_Ion_ctrs_in>
6_8

> <r_ionizer_Ionization_penalty>
0.00118438

> <r_ionizer_Ionization_penalty_charging>
0.00118438

> <r_ionizer_Ionization_penalty_neutral>
0

> <s_st_Chirality_1>
1_S_4_3_2_8

> <i_mmod_Serial_Number-OPLS-2005>
109

> <i_i_glide_lignum>
107

> <r_i_docking_score>
-4.09759

> <r_i_glide_gscore>
-4.09759

> <r_i_glide_lipo>
-0.139041

> <r_i_glide_hbond>
-0.861984

> <r_i_glide_metal>
0

> <r_i_glide_eburp>
-2.5

> <r_i_glide_evdw>
-8.07438

> <r_i_glide_ecoul>
-7.24396

> <r_i_glide_erotb>
0.913518

> <r_i_glide_esite>
-0.139733

> <r_i_glide_emodel>
-42.9623

> <r_i_glide_energy>
-15.3183

> <r_i_glide_einternal>
0.148156

> <i_i_glide_confnum>
1

> <i_i_glide_posenum>
525

$$$$
C00084
                    3D
 Structure written by MMmdl.
  7  6  0  0  1  0            999 V2000
    1.1947   -0.2996    2.5767 C   0  0  0  0  0  0
    1.2996   -0.5226    4.0789 C   0  0  0  0  0  0
    0.1002   -0.2997    2.0175 O   0  0  0  0  0  0
    2.1391   -0.1450    2.0547 H   0  0  0  0  0  0
    2.3412   -0.4768    4.3966 H   0  0  0  0  0  0
    0.7386    0.2428    4.6153 H   0  0  0  0  0  0
    0.8974   -1.5000    4.3455 H   0  0  0  0  0  0
  1  2  1  0  0  0
  1  3  2  0  0  0
  1  4  1  0  0  0
  2  5  1  0  0  0
  2  6  1  0  0  0
  2  7  1  0  0  0
M  END
> <i_ionizer_Ion_state_n>
0

> <i_ionizer_Tot_Q>
0

> <s_ionizer_Ion_centers>


> <s_ionizer_Ion_types>


> <s_ionizer_Ion_ctrs_in>


> <r_ionizer_Ionization_penalty>
0

> <r_ionizer_Ionization_penalty_charging>
0

> <r_ionizer_Ionization_penalty_neutral>
0

> <i_mmod_Serial_Number-OPLS-2005>
59

> <i_i_glide_lignum>
58

> <r_i_docking_score>
-4.09733

> <r_i_glide_gscore>
-4.09733

> <r_i_glide_lipo>
-0.124237

> <r_i_glide_hbond>
-0.118882

> <r_i_glide_metal>
0

> <r_i_glide_eburp>
-2.5

> <r_i_glide_evdw>
-9.86556

> <r_i_glide_ecoul>
-1.47885

> <r_i_glide_erotb>
0

> <r_i_glide_esite>
-0.417083

> <r_i_glide_emodel>
-12.5909

> <r_i_glide_energy>
-11.3444

> <r_i_glide_einternal>
0

> <i_i_glide_confnum>
1

> <i_i_glide_posenum>
146

$$$$
C04076
                    3D
 Structure written by MMmdl.
 21 20  0  0  1  0            999 V2000
    2.8145    0.4052    4.0548 C   0  0  1  0  0  0
    2.7199    1.6100    3.0991 C   0  0  0  0  0  0
    1.6843   -0.5932    3.7884 C   0  0  0  0  0  0
    1.3995    2.3775    3.2411 C   0  0  0  0  0  0
    1.6966   -1.2116    2.7001 O   0  0  0  0  0  0
    1.4528    3.7528    2.5579 C   0  0  0  0  0  0
    0.1372    4.5258    2.6558 C   0  0  0  0  0  0
   -0.8877    4.0079    3.0974 O   0  0  0  0  0  0
    2.7346    0.7539    5.0854 H   0  0  0  0  0  0
    3.5612    2.2847    3.2629 H   0  0  0  0  0  0
    2.8070    1.2601    2.0694 H   0  0  0  0  0  0
    4.1294   -1.0707    4.5523 H   0  0  0  0  0  0
    4.1579   -0.6594    2.9574 H   0  0  0  0  0  0
    0.5895    1.7880    2.8098 H   0  0  0  0  0  0
    1.1638    2.5045    4.2981 H   0  0  0  0  0  0
    2.2413    4.3596    3.0032 H   0  0  0  0  0  0
    1.7023    3.6341    1.5033 H   0  0  0  0  0  0
    0.1811    5.5593    2.3123 H   0  0  0  0  0  0
    4.0969   -0.3008    3.8997 N   0  3  0  0  0  0
    4.8615    0.3337    4.0777 H   0  0  0  0  0  0
    0.8393   -0.7422    4.6969 O   0  5  0  0  0  0
  1  2  1  0  0  0
  1  3  1  0  0  0
  1  9  1  0  0  0
  1 19  1  0  0  0
  2  4  1  0  0  0
  2 10  1  0  0  0
  2 11  1  0  0  0
  3  5  2  0  0  0
  3 21  1  0  0  0
  4  6  1  0  0  0
  4 14  1  0  0  0
  4 15  1  0  0  0
  6  7  1  0  0  0
  6 16  1  0  0  0
  6 17  1  0  0  0
  7  8  2  0  0  0
  7 18  1  0  0  0
 12 19  1  0  0  0
 13 19  1  0  0  0
 19 20  1  0  0  0
M  CHG  2  19   1  21  -1
M  END
> <i_ionizer_Ion_state_n>
3

> <i_ionizer_Tot_Q>
0

> <s_ionizer_Ion_centers>
19_21

> <s_ionizer_Ion_types>
N5_OM

> <s_ionizer_Ion_ctrs_in>
4_6

> <r_ionizer_Ionization_penalty>
0.000779521

> <r_ionizer_Ionization_penalty_charging>
0.000779521

> <r_ionizer_Ionization_penalty_neutral>
0

> <s_st_Chirality_1>
1_S_19_3_2_9

> <i_mmod_Serial_Number-OPLS-2005>
581

> <i_i_glide_lignum>
575

> <r_i_docking_score>
-4.08119

> <r_i_glide_gscore>
-4.08119

> <r_i_glide_lipo>
-0.255113

> <r_i_glide_hbond>
-1.43468

> <r_i_glide_metal>
0

> <r_i_glide_eburp>
-2.5

> <r_i_glide_evdw>
-13.4279

> <r_i_glide_ecoul>
-8.39432

> <r_i_glide_erotb>
2.3604

> <r_i_glide_esite>
-0.33813

> <r_i_glide_emodel>
-40.397

> <r_i_glide_energy>
-21.8222

> <r_i_glide_einternal>
1.65388

> <i_i_glide_confnum>
6

> <i_i_glide_posenum>
702

$$$$
C01089
                    3D
 Structure written by MMmdl.
 14 13  0  0  1  0            999 V2000
    1.2723    0.2203    2.6976 C   0  0  1  0  0  0
    1.2111    1.2069    3.8866 C   0  0  0  0  0  0
    2.2711    0.6745    1.6252 C   0  0  0  0  0  0
    1.6401   -1.0786    3.1244 O   0  0  0  0  0  0
    0.7900    2.6277    3.4870 C   0  0  0  0  0  0
    0.1016    3.2839    4.3002 O   0  0  0  0  0  0
    0.2846    0.1492    2.2399 H   0  0  0  0  0  0
    0.5164    0.8328    4.6401 H   0  0  0  0  0  0
    2.1872    1.2690    4.3681 H   0  0  0  0  0  0
    2.2835   -0.0138    0.7796 H   0  0  0  0  0  0
    2.0099    1.6612    1.2418 H   0  0  0  0  0  0
    3.2842    0.7311    2.0251 H   0  0  0  0  0  0
    2.4475   -1.0181    3.6109 H   0  0  0  0  0  0
    1.1341    3.0200    2.3504 O   0  5  0  0  0  0
  1  2  1  0  0  0
  1  3  1  0  0  0
  1  4  1  0  0  0
  1  7  1  0  0  0
  2  5  1  0  0  0
  2  8  1  0  0  0
  2  9  1  0  0  0
  3 10  1  0  0  0
  3 11  1  0  0  0
  3 12  1  0  0  0
  4 13  1  0  0  0
  5  6  2  0  0  0
  5 14  1  0  0  0
M  CHG  1  14  -1
M  END
> <i_ionizer_Ion_state_n>
1

> <i_ionizer_Tot_Q>
-1

> <s_ionizer_Ion_centers>
14

> <s_ionizer_Ion_types>
OM

> <s_ionizer_Ion_ctrs_in>
6

> <r_ionizer_Ionization_penalty>
0.00059219

> <r_ionizer_Ionization_penalty_charging>
0.00059219

> <r_ionizer_Ionization_penalty_neutral>
0

> <s_st_Chirality_1>
1_R_4_2_3_7

> <i_mmod_Serial_Number-OPLS-2005>
389

> <i_i_glide_lignum>
385

> <r_i_docking_score>
-4.07896

> <r_i_glide_gscore>
-4.07896

> <r_i_glide_lipo>
-0.297779

> <r_i_glide_hbond>
-0.711118

> <r_i_glide_metal>
0

> <r_i_glide_eburp>
-2.5

> <r_i_glide_evdw>
-11.6343

> <r_i_glide_ecoul>
-5.97913

> <r_i_glide_erotb>
1.33721

> <r_i_glide_esite>
-0.378613

> <r_i_glide_emodel>
-33.8827

> <r_i_glide_energy>
-17.6134

> <r_i_glide_einternal>
0.344554

> <i_i_glide_confnum>
1

> <i_i_glide_posenum>
505

$$$$
C00001
                    3D
 Structure written by MMmdl.
  3  2  0  0  1  0            999 V2000
    2.4996   -0.5878    5.0999 O   0  0  0  0  0  0
    3.3892   -1.0444    5.0909 H   0  0  0  0  0  0
    2.0770   -0.6989    5.9994 H   0  0  0  0  0  0
  1  2  1  0  0  0
  1  3  1  0  0  0
M  END
> <i_ionizer_Ion_state_n>
0

> <i_ionizer_Tot_Q>
0

> <s_ionizer_Ion_centers>


> <s_ionizer_Ion_types>


> <s_ionizer_Ion_ctrs_in>


> <r_ionizer_Ionization_penalty>
0

> <r_ionizer_Ionization_penalty_charging>
0

> <r_ionizer_Ionization_penalty_neutral>
0

> <i_mmod_Serial_Number-OPLS-2005>
1

> <i_i_glide_lignum>
1

> <r_i_docking_score>
-4.0759

> <r_i_glide_gscore>
-4.0759

> <r_i_glide_lipo>
0

> <r_i_glide_hbond>
-0.9

> <r_i_glide_metal>
0

> <r_i_glide_eburp>
-2.5

> <r_i_glide_evdw>
-0.195471

> <r_i_glide_ecoul>
-6.60261

> <r_i_glide_erotb>
0

> <r_i_glide_esite>
0

> <r_i_glide_emodel>
-8.55166

> <r_i_glide_energy>
-6.79808

> <r_i_glide_einternal>
0

> <i_i_glide_confnum>
1

> <i_i_glide_posenum>
680

$$$$
C03087
                    3D
 Structure written by MMmdl.
 23 22  0  0  1  0            999 V2000
    0.6032    3.3599    3.1022 C   0  0  0  0  0  0
    0.8294    1.8509    2.9422 C   0  0  0  0  0  0
    1.3153    4.1490    2.4417 O   0  0  0  0  0  0
    1.0318    1.1194    4.2842 C   0  0  0  0  0  0
    1.2431   -0.3903    4.1004 C   0  0  0  0  0  0
    2.5110   -0.7125    3.2982 C   0  0  0  0  0  0
    3.7002   -0.2943    4.0275 N   0  0  0  0  0  0
    4.1895    0.9532    4.0238 C   0  0  0  0  0  0
    5.4649    1.1813    4.8275 C   0  0  0  0  0  0
    3.6655    1.8867    3.4173 O   0  0  0  0  0  0
   -0.0274    1.4305    2.4147 H   0  0  0  0  0  0
    1.6992    1.7013    2.3019 H   0  0  0  0  0  0
    1.8921    1.5405    4.8068 H   0  0  0  0  0  0
    0.1660    1.2842    4.9275 H   0  0  0  0  0  0
    1.3001   -0.8686    5.0792 H   0  0  0  0  0  0
    0.3750   -0.8176    3.5966 H   0  0  0  0  0  0
    2.5668   -1.7841    3.0994 H   0  0  0  0  0  0
    2.4824   -0.2060    2.3321 H   0  0  0  0  0  0
    4.1812   -0.9976    4.5690 H   0  0  0  0  0  0
    5.7821    2.2226    4.7625 H   0  0  0  0  0  0
    5.3020    0.9392    5.8780 H   0  0  0  0  0  0
    6.2721    0.5545    4.4477 H   0  0  0  0  0  0
   -0.2972    3.7009    3.8996 O   0  5  0  0  0  0
  1  2  1  0  0  0
  1  3  2  0  0  0
  1 23  1  0  0  0
  2  4  1  0  0  0
  2 11  1  0  0  0
  2 12  1  0  0  0
  4  5  1  0  0  0
  4 13  1  0  0  0
  4 14  1  0  0  0
  5  6  1  0  0  0
  5 15  1  0  0  0
  5 16  1  0  0  0
  6  7  1  0  0  0
  6 17  1  0  0  0
  6 18  1  0  0  0
  7  8  1  0  0  0
  7 19  1  0  0  0
  8  9  1  0  0  0
  8 10  2  0  0  0
  9 20  1  0  0  0
  9 21  1  0  0  0
  9 22  1  0  0  0
M  CHG  1  23  -1
M  END
> <i_ionizer_Ion_state_n>
1

> <i_ionizer_Tot_Q>
-1

> <s_ionizer_Ion_centers>
23

> <s_ionizer_Ion_types>
OM

> <s_ionizer_Ion_ctrs_in>
3

> <r_ionizer_Ionization_penalty>
0.00059219

> <r_ionizer_Ionization_penalty_charging>
0.00059219

> <r_ionizer_Ionization_penalty_neutral>
0

> <i_mmod_Serial_Number-OPLS-2005>
522

> <i_i_glide_lignum>
516

> <r_i_docking_score>
-4.06821

> <r_i_glide_gscore>
-4.06821

> <r_i_glide_lipo>
-0.479293

> <r_i_glide_hbond>
-1.15

> <r_i_glide_metal>
0

> <r_i_glide_eburp>
-2.5

> <r_i_glide_evdw>
-18.6089

> <r_i_glide_ecoul>
-7.66425

> <r_i_glide_erotb>
2.74252

> <r_i_glide_esite>
-0.426295

> <r_i_glide_emodel>
-47.2663

> <r_i_glide_energy>
-26.2732

> <r_i_glide_einternal>
5.95986

> <i_i_glide_confnum>
20

> <i_i_glide_posenum>
453

$$$$
C01110
                    3D
 Structure written by MMmdl.
 18 17  0  0  1  0            999 V2000
    1.2768    2.0147    3.3082 C   0  0  0  0  0  0
    0.6686    3.4261    3.1506 C   0  0  0  0  0  0
    2.3809    1.6181    2.3158 C   0  0  0  0  0  0
    0.8992    1.2367    4.1868 O   0  0  0  0  0  0
   -0.2996    3.6981    3.8956 O   0  0  0  0  0  0
    2.4613    0.1028    2.0538 C   0  0  0  0  0  0
    2.7717   -0.6925    3.3285 C   0  0  0  0  0  0
    2.2050    2.1438    1.3763 H   0  0  0  0  0  0
    3.3365    1.9744    2.7029 H   0  0  0  0  0  0
    1.5172   -0.2452    1.6311 H   0  0  0  0  0  0
    3.2301   -0.0982    1.3057 H   0  0  0  0  0  0
    1.9944   -0.5298    4.0760 H   0  0  0  0  0  0
    2.7929   -1.7614    3.1131 H   0  0  0  0  0  0
    4.2476   -0.8371    4.7373 H   0  0  0  0  0  0
    4.8024   -0.4724    3.2279 H   0  0  0  0  0  0
    1.2039    4.1620    2.2918 O   0  5  0  0  0  0
    4.0698   -0.2988    3.9013 N   0  3  0  0  0  0
    4.0524    0.6844    4.1323 H   0  0  0  0  0  0
  1  2  1  0  0  0
  1  3  1  0  0  0
  1  4  2  0  0  0
  2  5  2  0  0  0
  2 16  1  0  0  0
  3  6  1  0  0  0
  3  8  1  0  0  0
  3  9  1  0  0  0
  6  7  1  0  0  0
  6 10  1  0  0  0
  6 11  1  0  0  0
  7 12  1  0  0  0
  7 13  1  0  0  0
  7 17  1  0  0  0
 14 17  1  0  0  0
 15 17  1  0  0  0
 17 18  1  0  0  0
M  CHG  2  16  -1  17   1
M  END
> <i_ionizer_Ion_state_n>
3

> <i_ionizer_Tot_Q>
0

> <s_ionizer_Ion_centers>
16_17

> <s_ionizer_Ion_types>
OM_N5

> <s_ionizer_Ion_ctrs_in>
5_9

> <r_ionizer_Ionization_penalty>
0.000779521

> <r_ionizer_Ionization_penalty_charging>
0.000779521

> <r_ionizer_Ionization_penalty_neutral>
0

> <i_mmod_Serial_Number-OPLS-2005>
396

> <i_i_glide_lignum>
392

> <r_i_docking_score>
-4.05796

> <r_i_glide_gscore>
-4.05796

> <r_i_glide_lipo>
-0.246081

> <r_i_glide_hbond>
-1.2

> <r_i_glide_metal>
0

> <r_i_glide_eburp>
-2.5

> <r_i_glide_evdw>
-11.6161

> <r_i_glide_ecoul>
-9.52546

> <r_i_glide_erotb>
1.84764

> <r_i_glide_esite>
-0.0776851

> <r_i_glide_emodel>
-45.3015

> <r_i_glide_energy>
-21.1415

> <r_i_glide_einternal>
2.63909

> <i_i_glide_confnum>
3

> <i_i_glide_posenum>
950

$$$$
C06000
                    3D
 Structure written by MMmdl.
 95 97  0  0  1  0            999 V2000
  -11.1433    9.5788   13.8637 N   0  0  0  0  0  0
  -12.0094    8.8734   12.8610 C   0  0  1  0  0  0
   -9.8800    9.1950   14.2642 C   0  0  0  0  0  0
  -11.3691   10.7757   14.5135 C   0  0  0  0  0  0
  -12.8455    9.8771   12.0450 C   0  0  1  0  0  0
  -11.1692    8.2131   11.9583 O   0  0  0  0  0  0
   -9.4462   10.1860   15.1865 C   0  0  0  0  0  0
   -9.1643    8.0987   13.8776 N   0  0  0  0  0  0
  -10.4181   11.1676   15.3189 N   0  0  0  0  0  0
  -12.5136    9.5157   10.5983 C   0  0  1  0  0  0
  -14.2308    9.7928   12.3069 O   0  0  0  0  0  0
  -11.1142    8.9145   10.7180 C   0  0  1  0  0  0
   -8.1617    9.9838   15.7507 C   0  0  0  0  0  0
   -7.9781    8.0420   14.4888 C   0  0  0  0  0  0
  -13.3694    8.5056   10.0774 O   0  0  0  0  0  0
   -9.9750    9.9528   10.7314 C   0  0  0  0  0  0
   -7.4532    8.8934   15.3762 N   0  0  0  0  0  0
   -7.6118   10.8250   16.6363 N   0  0  0  0  0  0
  -14.5656    9.0488    8.8538 P   0  0  0  0  0  0
   -8.7623    9.3188   11.0897 O   0  0  0  0  0  0
  -15.5774    9.8486    9.7033 O   0  0  0  0  0  0
   -7.3821   10.1969   11.5729 P   0  0  0  0  0  0
   -6.8789   11.0779   10.1994 O   0  0  0  0  0  0
   -7.8023   11.1809   12.5980 O   0  0  0  0  0  0
   -5.7057   12.2637    9.8333 P   0  0  0  0  0  0
   -4.5370   11.4852    8.8602 O   0  0  0  0  0  0
   -6.3602   13.2748    8.9718 O   0  0  0  0  0  0
   -3.2154   11.9700    8.7110 C   0  0  0  0  0  0
   -2.4001   11.2616    7.5966 C   0  0  0  0  0  0
   -3.0278   11.7062    6.2307 C   0  0  2  0  0  0
   -0.9094   11.6573    7.7103 C   0  0  0  0  0  0
   -2.5224    9.7333    7.7931 C   0  0  0  0  0  0
   -2.4803   11.0715    4.9417 C   0  0  0  0  0  0
   -2.9780   13.1135    6.0821 O   0  0  0  0  0  0
   -3.1490    9.9921    4.5085 N   0  0  0  0  0  0
   -1.5009   11.5345    4.3558 O   0  0  0  0  0  0
   -2.7582    9.1421    3.3950 C   0  0  0  0  0  0
   -1.8696    7.9850    3.8796 C   0  0  0  0  0  0
   -1.2152    7.2067    2.7294 C   0  0  1  0  0  0
   -0.6261    8.0992    1.8055 O   0  0  0  0  0  0
    0.3988    5.3491    2.3323 C   0  0  0  0  0  0
    1.5454    4.5587    2.9726 C   0  0  0  0  0  0
    2.0948    3.2036    1.8948 S   0  0  0  0  0  0
    3.0309    2.2359    3.1058 C   0  0  0  0  0  0
    2.5961    0.7733    3.2592 C   0  0  2  0  0  0
    3.9596    2.7059    3.7629 O   0  0  0  0  0  0
    1.3065    0.6580    4.0978 C   0  0  0  0  0  0
    3.7487   -0.0625    3.8429 C   0  0  0  0  0  0
    0.9086   -0.6933    4.2059 O   0  0  0  0  0  0
  -12.5949    8.1641   13.4471 H   0  0  0  0  0  0
  -12.2686   11.3580   14.3757 H   0  0  0  0  0  0
  -12.5030   10.8942   12.2411 H   0  0  0  0  0  0
  -12.5107   10.3832    9.9416 H   0  0  0  0  0  0
  -14.3662    9.9909   13.2304 H   0  0  0  0  0  0
  -10.9227    8.1968    9.9193 H   0  0  0  0  0  0
   -7.3617    7.1931   14.2320 H   0  0  0  0  0  0
   -9.8648   10.4602    9.7735 H   0  0  0  0  0  0
  -10.2093   10.7181   11.4696 H   0  0  0  0  0  0
   -6.6941   10.6326   17.0095 H   0  0  0  0  0  0
   -8.1254   11.6421   16.9335 H   0  0  0  0  0  0
   -3.2473   13.0398    8.5101 H   0  0  0  0  0  0
   -2.7263   11.8515    9.6777 H   0  0  0  0  0  0
   -4.0831   11.4350    6.2690 H   0  0  0  0  0  0
   -0.7714   12.7367    7.6465 H   0  0  0  0  0  0
   -0.3031   11.2000    6.9296 H   0  0  0  0  0  0
   -0.4917   11.3398    8.6662 H   0  0  0  0  0  0
   -1.9681    9.1694    7.0440 H   0  0  0  0  0  0
   -2.1181    9.4289    8.7580 H   0  0  0  0  0  0
   -3.5625    9.4080    7.7516 H   0  0  0  0  0  0
   -2.0617   13.3732    6.0305 H   0  0  0  0  0  0
   -3.9979    9.7376    5.0061 H   0  0  0  0  0  0
   -3.6674    8.7504    2.9376 H   0  0  0  0  0  0
   -2.2528    9.7322    2.6289 H   0  0  0  0  0  0
   -1.1039    8.3615    4.5603 H   0  0  0  0  0  0
   -2.4857    7.3006    4.4653 H   0  0  0  0  0  0
   -1.9321    6.5422    2.2444 H   0  0  0  0  0  0
   -1.2601    8.7643    1.5794 H   0  0  0  0  0  0
   -0.4530    4.6902    2.1582 H   0  0  0  0  0  0
    0.7129    5.7326    1.3606 H   0  0  0  0  0  0
    2.3905    5.2197    3.1698 H   0  0  0  0  0  0
    1.2251    4.1431    3.9290 H   0  0  0  0  0  0
    2.3789    0.4025    2.2563 H   0  0  0  0  0  0
    1.4515    1.0687    5.0979 H   0  0  0  0  0  0
    0.4903    1.2154    3.6356 H   0  0  0  0  0  0
    3.9839    0.2404    4.8640 H   0  0  0  0  0  0
    3.4926   -1.1220    3.8635 H   0  0  0  0  0  0
    4.6567    0.0395    3.2472 H   0  0  0  0  0  0
    1.5714   -1.1658    4.6865 H   0  0  0  0  0  0
  -13.6842    9.8763    7.8947 O   0  5  0  0  0  0
  -15.0986    7.7109    8.2932 O   0  5  0  0  0  0
   -6.3278    9.2173   11.9176 O   0  5  0  0  0  0
   -5.0665   12.7043   11.0932 O   0  5  0  0  0  0
   -0.0234    6.4706    3.1990 N   0  3  0  0  0  0
    0.7384    7.1264    3.2956 H   0  0  0  0  0  0
   -0.2375    6.0881    4.1090 H   0  0  0  0  0  0
  1  2  1  0  0  0
  1  3  1  0  0  0
  1  4  1  0  0  0
  2  5  1  0  0  0
  2  6  1  0  0  0
  2 50  1  0  0  0
  3  7  2  0  0  0
  3  8  1  0  0  0
  4  9  2  0  0  0
  4 51  1  0  0  0
  5 10  1  0  0  0
  5 11  1  0  0  0
  5 52  1  0  0  0
  6 12  1  0  0  0
  7 13  1  0  0  0
  7  9  1  0  0  0
  8 14  2  0  0  0
 10 15  1  0  0  0
 10 12  1  0  0  0
 10 53  1  0  0  0
 11 54  1  0  0  0
 12 16  1  0  0  0
 12 55  1  0  0  0
 13 17  2  0  0  0
 13 18  1  0  0  0
 14 17  1  0  0  0
 14 56  1  0  0  0
 15 19  1  0  0  0
 16 20  1  0  0  0
 16 57  1  0  0  0
 16 58  1  0  0  0
 18 59  1  0  0  0
 18 60  1  0  0  0
 19 21  2  0  0  0
 19 89  1  0  0  0
 19 90  1  0  0  0
 20 22  1  0  0  0
 22 23  1  0  0  0
 22 24  2  0  0  0
 22 91  1  0  0  0
 23 25  1  0  0  0
 25 26  1  0  0  0
 25 27  2  0  0  0
 25 92  1  0  0  0
 26 28  1  0  0  0
 28 29  1  0  0  0
 28 61  1  0  0  0
 28 62  1  0  0  0
 29 30  1  0  0  0
 29 31  1  0  0  0
 29 32  1  0  0  0
 30 33  1  0  0  0
 30 34  1  0  0  0
 30 63  1  0  0  0
 31 64  1  0  0  0
 31 65  1  0  0  0
 31 66  1  0  0  0
 32 67  1  0  0  0
 32 68  1  0  0  0
 32 69  1  0  0  0
 33 35  1  0  0  0
 33 36  2  0  0  0
 34 70  1  0  0  0
 35 37  1  0  0  0
 35 71  1  0  0  0
 37 38  1  0  0  0
 37 72  1  0  0  0
 37 73  1  0  0  0
 38 39  1  0  0  0
 38 74  1  0  0  0
 38 75  1  0  0  0
 39 40  1  0  0  0
 39 76  1  0  0  0
 39 93  1  0  0  0
 40 77  1  0  0  0
 41 42  1  0  0  0
 41 78  1  0  0  0
 41 79  1  0  0  0
 41 93  1  0  0  0
 42 43  1  0  0  0
 42 80  1  0  0  0
 42 81  1  0  0  0
 43 44  1  0  0  0
 44 45  1  0  0  0
 44 46  2  0  0  0
 45 47  1  0  0  0
 45 48  1  0  0  0
 45 82  1  0  0  0
 47 49  1  0  0  0
 47 83  1  0  0  0
 47 84  1  0  0  0
 48 85  1  0  0  0
 48 86  1  0  0  0
 48 87  1  0  0  0
 49 88  1  0  0  0
 93 94  1  0  0  0
 93 95  1  0  0  0
M  CHG  5  89  -1  90  -1  91  -1  92  -1  93   1
M  END
> <i_ionizer_Ion_state_n>
62

> <i_ionizer_Tot_Q>
-3

> <s_ionizer_Ion_centers>
89_90_91_92_93

> <s_ionizer_Ion_types>
OM_OM_OM_OM_N5

> <s_ionizer_Ion_ctrs_in>
21_22_26_30_44

> <r_ionizer_Ionization_penalty>
0.000107817

> <r_ionizer_Ionization_penalty_charging>
8.90812e-05

> <r_ionizer_Ionization_penalty_neutral>
1.87357e-05

> <s_st_Chirality_1>
2_R_6_1_5_50

> <s_st_Chirality_2>
5_R_11_2_10_52

> <s_st_Chirality_3>
10_R_15_5_12_53

> <s_st_Chirality_4>
12_R_6_10_16_55

> <s_st_Chirality_5>
45_S_44_47_48_82

> <s_st_Chirality_6>
30_R_34_33_29_63

> <s_st_Chirality_7>
39_R_40_93_38_76

> <i_mmod_Serial_Number-OPLS-2005>
845

> <i_i_glide_lignum>
833

> <r_i_docking_score>
-4.05255

> <r_i_glide_gscore>
-4.05255

> <r_i_glide_lipo>
-0.809804

> <r_i_glide_hbond>
-0.7

> <r_i_glide_metal>
0

> <r_i_glide_eburp>
0

> <r_i_glide_evdw>
-40.7186

> <r_i_glide_ecoul>
-3.89894

> <r_i_glide_erotb>
0.549753

> <r_i_glide_esite>
0.554884

> <r_i_glide_emodel>
-64.8889

> <r_i_glide_energy>
-44.6175

> <r_i_glide_einternal>
13.4016

> <i_i_glide_confnum>
737

> <i_i_glide_posenum>
399

$$$$
C02198
                    3D
 Structure written by MMmdl.
 56 57  0  0  1  0            999 V2000
    2.5390    5.6842    1.2901 C   0  0  2  0  0  0
    1.6742    5.1162    2.4153 C   0  0  1  0  0  0
    2.0717    7.0011    0.6727 C   0  0  0  0  0  0
    2.1256    5.0111    0.0745 O   0  0  0  0  0  0
    0.1696    5.3595    2.0782 C   0  0  2  0  0  0
    2.0063    3.6419    2.7171 C   0  0  0  0  0  0
    1.1232    6.0436   -0.0516 C   0  0  1  0  0  0
   -0.0499    5.7266    0.7048 O   0  0  0  0  0  0
   -0.4484    6.3934    3.0011 C   0  0  0  0  0  0
    3.3637    3.4846    3.3808 C   0  0  0  0  0  0
   -1.2446    7.3945    2.5920 C   0  0  0  0  0  0
    3.8304    2.3693    3.9720 C   0  0  0  0  0  0
   -1.8903    8.4078    3.5154 C   0  0  2  0  0  0
    3.1003    1.0428    4.0873 C   0  0  0  0  0  0
   -1.5317    8.1637    4.9932 C   0  0  0  0  0  0
   -3.2934    8.3352    3.3813 O   0  0  0  0  0  0
    3.4073    0.1201    2.8952 C   0  0  0  0  0  0
   -1.5904    9.4348    5.8612 C   0  0  0  0  0  0
    2.2556   -0.8396    2.5283 C   0  0  0  0  0  0
   -0.9267    9.2781    7.2397 C   0  0  0  0  0  0
    0.9045   -0.1358    2.3336 C   0  0  0  0  0  0
   -0.7442   10.6030    7.9977 C   0  0  0  0  0  0
    0.7075    0.8906    3.0193 O   0  0  0  0  0  0
   -0.0994   10.4057    9.3741 C   0  0  0  0  0  0
    3.6159    5.6391    1.4575 H   0  0  0  0  0  0
    1.9208    5.6754    3.3187 H   0  0  0  0  0  0
    1.6076    7.7106    1.3569 H   0  0  0  0  0  0
    2.8125    7.4639    0.0196 H   0  0  0  0  0  0
   -0.3852    4.4319    2.2238 H   0  0  0  0  0  0
    1.2437    3.1986    3.3582 H   0  0  0  0  0  0
    1.9888    3.0595    1.7964 H   0  0  0  0  0  0
    0.9143    6.3205   -1.0853 H   0  0  0  0  0  0
   -0.2263    6.2909    4.0528 H   0  0  0  0  0  0
    4.0014    4.3559    3.3491 H   0  0  0  0  0  0
   -1.4665    7.5030    1.5402 H   0  0  0  0  0  0
    4.8217    2.3912    4.4007 H   0  0  0  0  0  0
   -1.5763    9.4113    3.2242 H   0  0  0  0  0  0
    3.4008    0.5617    5.0183 H   0  0  0  0  0  0
    2.0272    1.2049    4.1634 H   0  0  0  0  0  0
   -2.2173    7.4192    5.3980 H   0  0  0  0  0  0
   -0.5340    7.7271    5.0612 H   0  0  0  0  0  0
   -3.5713    8.9943    2.7637 H   0  0  0  0  0  0
    3.6729    0.7197    2.0238 H   0  0  0  0  0  0
    4.2939   -0.4702    3.1266 H   0  0  0  0  0  0
   -1.0830   10.2438    5.3352 H   0  0  0  0  0  0
   -2.6250    9.7574    5.9844 H   0  0  0  0  0  0
    2.4956   -1.3544    1.5979 H   0  0  0  0  0  0
    2.1554   -1.6103    3.2934 H   0  0  0  0  0  0
    0.0535    8.8218    7.0997 H   0  0  0  0  0  0
   -1.5003    8.5765    7.8466 H   0  0  0  0  0  0
   -0.1262   11.2803    7.4072 H   0  0  0  0  0  0
   -1.7068   11.0968    8.1282 H   0  0  0  0  0  0
    0.8884    9.9526    9.2854 H   0  0  0  0  0  0
    0.0177   11.3598    9.8884 H   0  0  0  0  0  0
   -0.7098    9.7599   10.0059 H   0  0  0  0  0  0
    0.0852   -0.6308    1.5271 O   0  5  0  0  0  0
  1  2  1  0  0  0
  1  3  1  0  0  0
  1  4  1  0  0  0
  1 25  1  0  0  0
  2  5  1  0  0  0
  2  6  1  0  0  0
  2 26  1  0  0  0
  3  7  1  0  0  0
  3 27  1  0  0  0
  3 28  1  0  0  0
  4  7  1  0  0  0
  5  8  1  0  0  0
  5  9  1  0  0  0
  5 29  1  0  0  0
  6 10  1  0  0  0
  6 30  1  0  0  0
  6 31  1  0  0  0
  7  8  1  0  0  0
  7 32  1  0  0  0
  9 11  2  0  0  0
  9 33  1  0  0  0
 10 12  2  0  0  0
 10 34  1  0  0  0
 11 13  1  0  0  0
 11 35  1  0  0  0
 12 14  1  0  0  0
 12 36  1  0  0  0
 13 15  1  0  0  0
 13 16  1  0  0  0
 13 37  1  0  0  0
 14 17  1  0  0  0
 14 38  1  0  0  0
 14 39  1  0  0  0
 15 18  1  0  0  0
 15 40  1  0  0  0
 15 41  1  0  0  0
 16 42  1  0  0  0
 17 19  1  0  0  0
 17 43  1  0  0  0
 17 44  1  0  0  0
 18 20  1  0  0  0
 18 45  1  0  0  0
 18 46  1  0  0  0
 19 21  1  0  0  0
 19 47  1  0  0  0
 19 48  1  0  0  0
 20 22  1  0  0  0
 20 49  1  0  0  0
 20 50  1  0  0  0
 21 23  2  0  0  0
 21 56  1  0  0  0
 22 24  1  0  0  0
 22 51  1  0  0  0
 22 52  1  0  0  0
 24 53  1  0  0  0
 24 54  1  0  0  0
 24 55  1  0  0  0
M  CHG  1  56  -1
M  END
> <i_ionizer_Ion_state_n>
1

> <i_ionizer_Tot_Q>
-1

> <s_ionizer_Ion_centers>
56

> <s_ionizer_Ion_types>
OM

> <s_ionizer_Ion_ctrs_in>
23

> <r_ionizer_Ionization_penalty>
0.00059219

> <r_ionizer_Ionization_penalty_charging>
0.00059219

> <r_ionizer_Ionization_penalty_neutral>
0

> <s_st_Chirality_1>
1_S_4_2_3_25

> <s_st_Chirality_2>
2_S_5_1_6_26

> <s_st_Chirality_3>
5_R_8_2_9_29

> <s_st_Chirality_4>
7_S_8_4_3_32

> <s_st_Chirality_5>
13_S_16_11_15_37

> <s_st_EZ_1>
5_9_11_13_E

> <s_st_EZ_2>
6_10_12_14_Z

> <i_mmod_Serial_Number-OPLS-2005>
478

> <i_i_glide_lignum>
473

> <r_i_docking_score>
-4.04751

> <r_i_glide_gscore>
-4.04751

> <r_i_glide_lipo>
-1.31272

> <r_i_glide_hbond>
-0.807311

> <r_i_glide_metal>
0

> <r_i_glide_eburp>
-1.12525

> <r_i_glide_evdw>
-18.2261

> <r_i_glide_ecoul>
-5.66878

> <r_i_glide_erotb>
1.7646

> <r_i_glide_esite>
-0.541871

> <r_i_glide_emodel>
-44.8331

> <r_i_glide_energy>
-23.8949

> <r_i_glide_einternal>
10.9766

> <i_i_glide_confnum>
364

> <i_i_glide_posenum>
883

$$$$
C06124
                    3D
 Structure written by MMmdl.
 62 61  0  0  1  0            999 V2000
    2.3847    0.7519    4.3169 C   0  0  1  0  0  0
    3.4432    1.1023    3.2425 C   0  0  1  0  0  0
    0.9409    1.0871    3.8716 C   0  0  0  0  0  0
    4.3357    2.2763    3.6255 C   0  0  0  0  0  0
    4.2276   -0.0365    2.9369 O   0  0  0  0  0  0
    0.5010    2.3658    4.3117 O   0  0  0  0  0  0
    4.4624    3.4653    3.0037 C   0  0  0  0  0  0
    0.4106    3.6836    3.0953 P   0  0  0  0  0  0
    3.7737    3.9233    1.7304 C   0  0  0  0  0  0
    1.3033    3.1439    1.9559 O   0  0  0  0  0  0
    2.9913    5.2268    1.9401 C   0  0  0  0  0  0
    2.3080    5.7157    0.6550 C   0  0  0  0  0  0
    1.4480    6.9671    0.8841 C   0  0  0  0  0  0
    0.3239    6.7315    1.9035 C   0  0  0  0  0  0
   -0.7033    7.8729    1.9231 C   0  0  0  0  0  0
   -1.7777    7.6808    3.0034 C   0  0  0  0  0  0
   -2.3139    9.0137    3.5455 C   0  0  0  0  0  0
   -3.5241    8.8292    4.4727 C   0  0  0  0  0  0
   -4.0331   10.1582    5.0498 C   0  0  0  0  0  0
   -5.2490    9.9745    5.9696 C   0  0  0  0  0  0
   -5.7523   11.3022    6.5543 C   0  0  0  0  0  0
   -6.9437   11.1149    7.5000 C   0  0  0  0  0  0
    2.6023    1.3171    5.2236 H   0  0  0  0  0  0
    2.9324    1.3815    2.3197 H   0  0  0  0  0  0
    0.8854    1.1334    2.7849 H   0  0  0  0  0  0
    0.2413    0.3034    4.1630 H   0  0  0  0  0  0
    1.8899   -0.8593    5.4490 H   0  0  0  0  0  0
    2.1827   -1.2391    3.8706 H   0  0  0  0  0  0
    4.9272    2.1166    4.5155 H   0  0  0  0  0  0
    4.3824   -0.5180    3.7360 H   0  0  0  0  0  0
    5.1318    4.1919    3.4412 H   0  0  0  0  0  0
    4.5431    4.0722    0.9722 H   0  0  0  0  0  0
    3.1169    3.1496    1.3374 H   0  0  0  0  0  0
    2.2391    5.0770    2.7158 H   0  0  0  0  0  0
    3.6658    6.0003    2.3098 H   0  0  0  0  0  0
    3.0660    5.9297   -0.0996 H   0  0  0  0  0  0
    1.6852    4.9175    0.2491 H   0  0  0  0  0  0
    2.0826    7.7853    1.2269 H   0  0  0  0  0  0
    1.0156    7.2884   -0.0644 H   0  0  0  0  0  0
   -0.1819    5.7926    1.6747 H   0  0  0  0  0  0
    0.7554    6.6151    2.8985 H   0  0  0  0  0  0
   -0.1890    8.8206    2.0878 H   0  0  0  0  0  0
   -1.1814    7.9470    0.9456 H   0  0  0  0  0  0
   -2.6034    7.0977    2.5937 H   0  0  0  0  0  0
   -1.3644    7.0951    3.8255 H   0  0  0  0  0  0
   -1.5197    9.5315    4.0849 H   0  0  0  0  0  0
   -2.5917    9.6589    2.7111 H   0  0  0  0  0  0
   -4.3299    8.3400    3.9240 H   0  0  0  0  0  0
   -3.2556    8.1584    5.2899 H   0  0  0  0  0  0
   -3.2293   10.6441    5.6043 H   0  0  0  0  0  0
   -4.2952   10.8314    4.2326 H   0  0  0  0  0  0
   -6.0554    9.4950    5.4132 H   0  0  0  0  0  0
   -4.9892    9.2958    6.7830 H   0  0  0  0  0  0
   -4.9420   11.7961    7.0917 H   0  0  0  0  0  0
   -6.0395   11.9736    5.7442 H   0  0  0  0  0  0
   -7.2779   12.0732    7.8983 H   0  0  0  0  0  0
   -7.7880   10.6566    6.9842 H   0  0  0  0  0  0
   -6.6800   10.4776    8.3446 H   0  0  0  0  0  0
    2.4956   -0.6791    4.6499 N   0  3  0  0  0  0
    3.4516   -0.9020    4.8838 H   0  0  0  0  0  0
   -1.1035    3.6996    2.7864 O   0  5  0  0  0  0
    0.9621    4.8844    3.8915 O   0  5  0  0  0  0
  1  2  1  0  0  0
  1  3  1  0  0  0
  1 23  1  0  0  0
  1 59  1  0  0  0
  2  4  1  0  0  0
  2  5  1  0  0  0
  2 24  1  0  0  0
  3  6  1  0  0  0
  3 25  1  0  0  0
  3 26  1  0  0  0
  4  7  2  0  0  0
  4 29  1  0  0  0
  5 30  1  0  0  0
  6  8  1  0  0  0
  7  9  1  0  0  0
  7 31  1  0  0  0
  8 10  2  0  0  0
  8 61  1  0  0  0
  8 62  1  0  0  0
  9 11  1  0  0  0
  9 32  1  0  0  0
  9 33  1  0  0  0
 11 12  1  0  0  0
 11 34  1  0  0  0
 11 35  1  0  0  0
 12 13  1  0  0  0
 12 36  1  0  0  0
 12 37  1  0  0  0
 13 14  1  0  0  0
 13 38  1  0  0  0
 13 39  1  0  0  0
 14 15  1  0  0  0
 14 40  1  0  0  0
 14 41  1  0  0  0
 15 16  1  0  0  0
 15 42  1  0  0  0
 15 43  1  0  0  0
 16 17  1  0  0  0
 16 44  1  0  0  0
 16 45  1  0  0  0
 17 18  1  0  0  0
 17 46  1  0  0  0
 17 47  1  0  0  0
 18 19  1  0  0  0
 18 48  1  0  0  0
 18 49  1  0  0  0
 19 20  1  0  0  0
 19 50  1  0  0  0
 19 51  1  0  0  0
 20 21  1  0  0  0
 20 52  1  0  0  0
 20 53  1  0  0  0
 21 22  1  0  0  0
 21 54  1  0  0  0
 21 55  1  0  0  0
 22 56  1  0  0  0
 22 57  1  0  0  0
 22 58  1  0  0  0
 27 59  1  0  0  0
 28 59  1  0  0  0
 59 60  1  0  0  0
M  CHG  3  59   1  61  -1  62  -1
M  END
> <i_ionizer_Ion_state_n>
7

> <i_ionizer_Tot_Q>
-1

> <s_ionizer_Ion_centers>
59_61_62

> <s_ionizer_Ion_types>
N5_OM_OM

> <s_ionizer_Ion_ctrs_in>
4_11_12

> <r_ionizer_Ionization_penalty>
0.000202249

> <r_ionizer_Ionization_penalty_charging>
0.000202249

> <r_ionizer_Ionization_penalty_neutral>
0

> <s_st_Chirality_1>
1_R_59_2_3_23

> <s_st_Chirality_2>
2_R_5_1_4_24

> <s_st_EZ_1>
2_4_7_9_Z

> <i_mmod_Serial_Number-OPLS-2005>
856

> <i_i_glide_lignum>
844

> <r_i_docking_score>
-4.04715

> <r_i_glide_gscore>
-4.04715

> <r_i_glide_lipo>
-1.15809

> <r_i_glide_hbond>
-1.24258

> <r_i_glide_metal>
0

> <r_i_glide_eburp>
-0.920658

> <r_i_glide_evdw>
-24.3096

> <r_i_glide_ecoul>
-8.12118

> <r_i_glide_erotb>
2.3193

> <r_i_glide_esite>
-0.288238

> <r_i_glide_emodel>
-64.8808

> <r_i_glide_energy>
-32.4308

> <r_i_glide_einternal>
25.055

> <i_i_glide_confnum>
580

> <i_i_glide_posenum>
905

$$$$
C00248
                    3D
 Structure written by MMmdl.
 27 27  0  0  1  0            999 V2000
    0.4665    5.6097    1.6222 C   0  0  2  0  0  0
    0.3975    7.1457    1.6651 C   0  0  0  0  0  0
   -1.0991    4.9991    2.2996 S   0  0  0  0  0  0
    1.6865    5.0482    2.3738 C   0  0  0  0  0  0
   -0.9387    7.6135    1.0687 C   0  0  0  0  0  0
   -2.2607    6.5520    1.7042 S   0  0  0  0  0  0
    1.8161    3.5185    2.2827 C   0  0  0  0  0  0
    3.1187    3.0007    2.9099 C   0  0  0  0  0  0
    3.1469    1.4654    3.0228 C   0  0  0  0  0  0
    2.1455    0.9156    4.0438 C   0  0  0  0  0  0
    2.5007   -0.1906    4.7001 N   0  0  0  0  0  0
    1.0699    1.4747    4.2474 O   0  0  0  0  0  0
    0.5136    5.2999    0.5773 H   0  0  0  0  0  0
    0.4667    7.4851    2.6995 H   0  0  0  0  0  0
    1.2361    7.5924    1.1299 H   0  0  0  0  0  0
    2.5906    5.4984    1.9618 H   0  0  0  0  0  0
    1.6455    5.3542    3.4200 H   0  0  0  0  0  0
   -1.1418    8.6588    1.3019 H   0  0  0  0  0  0
   -0.9162    7.5166   -0.0171 H   0  0  0  0  0  0
    0.9679    3.0452    2.7782 H   0  0  0  0  0  0
    1.7719    3.2125    1.2367 H   0  0  0  0  0  0
    3.9642    3.3417    2.3105 H   0  0  0  0  0  0
    3.2430    3.4428    3.8996 H   0  0  0  0  0  0
    2.9368    1.0257    2.0467 H   0  0  0  0  0  0
    4.1452    1.1324    3.3087 H   0  0  0  0  0  0
    1.8710   -0.5857    5.3832 H   0  0  0  0  0  0
    3.3915   -0.6272    4.5140 H   0  0  0  0  0  0
  1  2  1  0  0  0
  1  3  1  0  0  0
  1  4  1  0  0  0
  1 13  1  0  0  0
  2  5  1  0  0  0
  2 14  1  0  0  0
  2 15  1  0  0  0
  3  6  1  0  0  0
  4  7  1  0  0  0
  4 16  1  0  0  0
  4 17  1  0  0  0
  5  6  1  0  0  0
  5 18  1  0  0  0
  5 19  1  0  0  0
  7  8  1  0  0  0
  7 20  1  0  0  0
  7 21  1  0  0  0
  8  9  1  0  0  0
  8 22  1  0  0  0
  8 23  1  0  0  0
  9 10  1  0  0  0
  9 24  1  0  0  0
  9 25  1  0  0  0
 10 11  1  0  0  0
 10 12  2  0  0  0
 11 26  1  0  0  0
 11 27  1  0  0  0
M  END
> <i_ionizer_Ion_state_n>
0

> <i_ionizer_Tot_Q>
0

> <s_ionizer_Ion_centers>


> <s_ionizer_Ion_types>


> <s_ionizer_Ion_ctrs_in>


> <r_ionizer_Ionization_penalty>
0

> <r_ionizer_Ionization_penalty_charging>
0

> <r_ionizer_Ionization_penalty_neutral>
0

> <s_st_Chirality_1>
1_R_3_2_4_13

> <i_mmod_Serial_Number-OPLS-2005>
162

> <i_i_glide_lignum>
160

> <r_i_docking_score>
-4.04713

> <r_i_glide_gscore>
-4.04713

> <r_i_glide_lipo>
-0.514181

> <r_i_glide_hbond>
-0.110441

> <r_i_glide_metal>
0

> <r_i_glide_eburp>
-2.23225

> <r_i_glide_evdw>
-23.2008

> <r_i_glide_ecoul>
-5.80495

> <r_i_glide_erotb>
1.33971

> <r_i_glide_esite>
-0.0934195

> <r_i_glide_emodel>
-39.1888

> <r_i_glide_energy>
-29.0057

> <r_i_glide_einternal>
1.07698

> <i_i_glide_confnum>
1

> <i_i_glide_posenum>
368

$$$$
C05923
                    3D
 Structure written by MMmdl.
 45 46  0  0  1  0            999 V2000
   -2.1807    7.3747    2.8623 C   0  0  1  0  0  0
   -1.7356    6.1353    2.4011 O   0  0  0  0  0  0
   -1.6163    7.7091    4.1674 N   0  0  0  0  0  0
   -1.7373    8.3893    1.8078 C   0  0  1  0  0  0
   -0.5845    6.2763    1.5676 C   0  0  1  0  0  0
   -2.1004    8.5917    5.1289 C   0  0  0  0  0  0
   -0.4299    7.7828    1.3246 C   0  0  1  0  0  0
   -2.6920    8.4959    0.7680 O   0  0  0  0  0  0
    0.6211    5.6189    2.2635 C   0  0  0  0  0  0
   -3.2588    9.2895    4.9971 C   0  0  0  0  0  0
   -1.2881    8.7285    6.2642 N   0  0  0  0  0  0
   -0.1171    8.1242   -0.0134 O   0  0  0  0  0  0
    0.6483    4.2293    1.9972 O   0  0  0  0  0  0
   -3.6811   10.2018    6.0693 C   0  0  0  0  0  0
   -4.0882    9.1992    3.8961 N   0  0  0  0  0  0
   -1.6525    9.5303    7.2118 C   0  0  0  0  0  0
    1.1429    3.0880    3.1665 P   0  0  0  0  0  0
   -2.8380   10.2637    7.1252 N   0  0  0  0  0  0
   -4.7107   10.8761    6.0487 O   0  0  0  0  0  0
   -0.9560    9.7608    8.3797 N   0  0  0  0  0  0
    0.9106    1.5783    2.4162 O   0  0  0  0  0  0
    2.5868    3.2887    3.4254 O   0  0  0  0  0  0
    1.1756   -0.0513    2.8373 P   0  0  0  0  0  0
    2.8387   -0.2677    2.5623 O   0  0  0  0  0  0
    0.9767   -0.2033    4.2990 O   0  0  0  0  0  0
    4.4548    0.4844    2.5355 P   0  0  0  0  0  0
    4.1304    1.9793    2.3206 O   0  0  0  0  0  0
   -3.2670    7.3499    2.9428 H   0  0  0  0  0  0
   -0.7018    7.3090    4.3504 H   0  0  0  0  0  0
   -1.5959    9.3785    2.2475 H   0  0  0  0  0  0
   -0.7975    5.7601    0.6306 H   0  0  0  0  0  0
    0.3607    8.1617    1.9569 H   0  0  0  0  0  0
   -3.2749    9.2057    0.9944 H   0  0  0  0  0  0
    1.5516    6.0883    1.9454 H   0  0  0  0  0  0
    0.5538    5.7612    3.3418 H   0  0  0  0  0  0
    0.1034    9.0533   -0.0305 H   0  0  0  0  0  0
   -4.8813    9.8157    3.7978 H   0  0  0  0  0  0
   -3.7857    8.7334    3.0409 H   0  0  0  0  0  0
   -3.0905   10.8784    7.8836 H   0  0  0  0  0  0
   -0.0793    9.3069    8.5922 H   0  0  0  0  0  0
   -1.2601   10.3919    9.1062 H   0  0  0  0  0  0
    0.1857    3.1870    4.2918 O   0  5  0  0  0  0
    0.4150   -0.9168    1.9062 O   0  5  0  0  0  0
    5.0141    0.0998    3.9245 O   0  5  0  0  0  0
    5.1142   -0.2384    1.3392 O   0  5  0  0  0  0
  1  2  1  0  0  0
  1  3  1  0  0  0
  1  4  1  0  0  0
  1 28  1  0  0  0
  2  5  1  0  0  0
  3  6  1  0  0  0
  3 29  1  0  0  0
  4  7  1  0  0  0
  4  8  1  0  0  0
  4 30  1  0  0  0
  5  9  1  0  0  0
  5  7  1  0  0  0
  5 31  1  0  0  0
  6 10  2  0  0  0
  6 11  1  0  0  0
  7 12  1  0  0  0
  7 32  1  0  0  0
  8 33  1  0  0  0
  9 13  1  0  0  0
  9 34  1  0  0  0
  9 35  1  0  0  0
 10 14  1  0  0  0
 10 15  1  0  0  0
 11 16  2  0  0  0
 12 36  1  0  0  0
 13 17  1  0  0  0
 14 18  1  0  0  0
 14 19  2  0  0  0
 15 37  1  0  0  0
 15 38  1  0  0  0
 16 20  1  0  0  0
 16 18  1  0  0  0
 17 21  1  0  0  0
 17 22  2  0  0  0
 17 42  1  0  0  0
 18 39  1  0  0  0
 20 40  1  0  0  0
 20 41  1  0  0  0
 21 23  1  0  0  0
 23 24  1  0  0  0
 23 25  2  0  0  0
 23 43  1  0  0  0
 24 26  1  0  0  0
 26 27  2  0  0  0
 26 44  1  0  0  0
 26 45  1  0  0  0
M  CHG  4  42  -1  43  -1  44  -1  45  -1
M  END
> <i_ionizer_Ion_state_n>
15

> <i_ionizer_Tot_Q>
-4

> <s_ionizer_Ion_centers>
42_43_44_45

> <s_ionizer_Ion_types>
OM_OM_OM_OM

> <s_ionizer_Ion_ctrs_in>
22_26_29_30

> <r_ionizer_Ionization_penalty>
2.98356e-05

> <r_ionizer_Ionization_penalty_charging>
2.98356e-05

> <r_ionizer_Ionization_penalty_neutral>
0

> <s_st_Chirality_1>
1_R_2_3_4_28

> <s_st_Chirality_2>
4_R_8_1_7_30

> <s_st_Chirality_3>
5_R_2_7_9_31

> <s_st_Chirality_4>
7_R_12_4_5_32

> <i_mmod_Serial_Number-OPLS-2005>
825

> <i_i_glide_lignum>
813

> <r_i_docking_score>
-4.04319

> <r_i_glide_gscore>
-4.04319

> <r_i_glide_lipo>
-0.522963

> <r_i_glide_hbond>
-1.78537

> <r_i_glide_metal>
0

> <r_i_glide_eburp>
1.11022e-16

> <r_i_glide_evdw>
-23.5495

> <r_i_glide_ecoul>
-15.3248

> <r_i_glide_erotb>
0.722212

> <r_i_glide_esite>
0.959363

> <r_i_glide_emodel>
-98.7608

> <r_i_glide_energy>
-38.8742

> <r_i_glide_einternal>
13.147

> <i_i_glide_confnum>
114

> <i_i_glide_posenum>
383

$$$$
C00188
                    3D
 Structure written by MMmdl.
 17 16  0  0  1  0            999 V2000
    3.2616    0.2308    2.7460 C   0  0  1  0  0  0
    3.7715   -0.3306    1.3893 C   0  0  2  0  0  0
    1.7917   -0.1204    3.0321 C   0  0  0  0  0  0
    5.2129    0.1000    1.0743 C   0  0  0  0  0  0
    2.9634    0.1022    0.3099 O   0  0  0  0  0  0
    1.3011   -1.1004    2.4266 O   0  0  0  0  0  0
    3.3675    1.3173    2.7390 H   0  0  0  0  0  0
    3.7250   -1.4208    1.4070 H   0  0  0  0  0  0
    3.7240    0.1234    4.7276 H   0  0  0  0  0  0
    3.9437   -1.2911    3.9129 H   0  0  0  0  0  0
    5.5472   -0.3119    0.1214 H   0  0  0  0  0  0
    5.2991    1.1857    1.0142 H   0  0  0  0  0  0
    5.9091   -0.2468    1.8379 H   0  0  0  0  0  0
    3.3108   -0.2544   -0.4934 H   0  0  0  0  0  0
    4.0597   -0.2887    3.8690 N   0  3  0  0  0  0
    5.0331   -0.0585    3.7341 H   0  0  0  0  0  0
    1.1982    0.5657    3.8928 O   0  5  0  0  0  0
  1  2  1  0  0  0
  1  3  1  0  0  0
  1  7  1  0  0  0
  1 15  1  0  0  0
  2  4  1  0  0  0
  2  5  1  0  0  0
  2  8  1  0  0  0
  3  6  2  0  0  0
  3 17  1  0  0  0
  4 11  1  0  0  0
  4 12  1  0  0  0
  4 13  1  0  0  0
  5 14  1  0  0  0
  9 15  1  0  0  0
 10 15  1  0  0  0
 15 16  1  0  0  0
M  CHG  2  15   1  17  -1
M  END
> <i_ionizer_Ion_state_n>
3

> <i_ionizer_Tot_Q>
0

> <s_ionizer_Ion_centers>
15_17

> <s_ionizer_Ion_types>
N5_OM

> <s_ionizer_Ion_ctrs_in>
4_7

> <r_ionizer_Ionization_penalty>
0.000779521

> <r_ionizer_Ionization_penalty_charging>
0.000779521

> <r_ionizer_Ionization_penalty_neutral>
0

> <s_st_Chirality_1>
1_S_15_3_2_7

> <s_st_Chirality_2>
2_S_5_1_4_8

> <i_mmod_Serial_Number-OPLS-2005>
133

> <i_i_glide_lignum>
131

> <r_i_docking_score>
-4.03224

> <r_i_glide_gscore>
-4.03224

> <r_i_glide_lipo>
-0.270147

> <r_i_glide_hbond>
-0.563719

> <r_i_glide_metal>
0

> <r_i_glide_eburp>
-2.5

> <r_i_glide_evdw>
-10.2641

> <r_i_glide_ecoul>
-6.21162

> <r_i_glide_erotb>
1.07272

> <r_i_glide_esite>
-0.328793

> <r_i_glide_emodel>
-32.6454

> <r_i_glide_energy>
-16.4758

> <r_i_glide_einternal>
0.583455

> <i_i_glide_confnum>
2

> <i_i_glide_posenum>
390

$$$$
C02714
                    3D
 Structure written by MMmdl.
 24 23  0  0  1  0            999 V2000
    3.7178    1.7047    4.4388 C   0  0  0  0  0  0
    2.9528    0.4655    4.4332 N   0  0  0  0  0  0
    5.0883    1.5005    3.7785 C   0  0  0  0  0  0
    1.7131    0.3476    3.9377 C   0  0  0  0  0  0
    5.8452    0.2961    4.3575 C   0  0  0  0  0  0
    1.0958   -1.0456    3.9833 C   0  0  0  0  0  0
    1.0794    1.2902    3.4649 O   0  0  0  0  0  0
    6.2716    0.5149    5.8159 C   0  0  0  0  0  0
    3.8438    2.0458    5.4677 H   0  0  0  0  0  0
    3.1571    2.4768    3.9093 H   0  0  0  0  0  0
    3.3906   -0.3533    4.8296 H   0  0  0  0  0  0
    4.9567    1.3638    2.7041 H   0  0  0  0  0  0
    5.6899    2.4018    3.9047 H   0  0  0  0  0  0
    5.2146   -0.5916    4.2907 H   0  0  0  0  0  0
    6.7262    0.0964    3.7456 H   0  0  0  0  0  0
    0.0911   -1.0377    3.5592 H   0  0  0  0  0  0
    1.7013   -1.7500    3.4124 H   0  0  0  0  0  0
    1.0287   -1.3997    5.0123 H   0  0  0  0  0  0
    6.9741    1.3462    5.8853 H   0  0  0  0  0  0
    5.4073    0.7718    6.4295 H   0  0  0  0  0  0
    7.1766   -0.5155    7.3337 H   0  0  0  0  0  0
    6.2566   -1.4615    6.3457 H   0  0  0  0  0  0
    6.9077   -0.6898    6.3757 N   0  3  0  0  0  0
    7.7285   -0.9218    5.8345 H   0  0  0  0  0  0
  1  2  1  0  0  0
  1  3  1  0  0  0
  1  9  1  0  0  0
  1 10  1  0  0  0
  2  4  1  0  0  0
  2 11  1  0  0  0
  3  5  1  0  0  0
  3 12  1  0  0  0
  3 13  1  0  0  0
  4  6  1  0  0  0
  4  7  2  0  0  0
  5  8  1  0  0  0
  5 14  1  0  0  0
  5 15  1  0  0  0
  6 16  1  0  0  0
  6 17  1  0  0  0
  6 18  1  0  0  0
  8 19  1  0  0  0
  8 20  1  0  0  0
  8 23  1  0  0  0
 21 23  1  0  0  0
 22 23  1  0  0  0
 23 24  1  0  0  0
M  CHG  1  23   1
M  END
> <i_ionizer_Ion_state_n>
1

> <i_ionizer_Tot_Q>
1

> <s_ionizer_Ion_centers>
23

> <s_ionizer_Ion_types>
N5

> <s_ionizer_Ion_ctrs_in>
9

> <r_ionizer_Ionization_penalty>
0.000187331

> <r_ionizer_Ionization_penalty_charging>
0.000187331

> <r_ionizer_Ionization_penalty_neutral>
0

> <i_mmod_Serial_Number-OPLS-2005>
505

> <i_i_glide_lignum>
500

> <r_i_docking_score>
-4.02946

> <r_i_glide_gscore>
-4.02946

> <r_i_glide_lipo>
-0.506056

> <r_i_glide_hbond>
-1

> <r_i_glide_metal>
0

> <r_i_glide_eburp>
-2.5

> <r_i_glide_evdw>
-16.0629

> <r_i_glide_ecoul>
-8.06373

> <r_i_glide_erotb>
2.76925

> <r_i_glide_esite>
-0.701242

> <r_i_glide_emodel>
-38.8666

> <r_i_glide_energy>
-24.1266

> <r_i_glide_einternal>
3.98436

> <i_i_glide_confnum>
15

> <i_i_glide_posenum>
292

$$$$
C00319
                    3D
 Structure written by MMmdl.
 59 58  0  0  1  0            999 V2000
   -1.2620    6.3409    2.6886 C   0  0  0  0  0  0
   -0.5700    5.2208    2.4237 C   0  0  0  0  0  0
   -2.2601    6.9788    1.7412 C   0  0  2  0  0  0
    0.4273    4.5864    3.3707 C   0  0  0  0  0  0
   -1.6999    8.2430    1.0403 C   0  0  2  0  0  0
   -3.4517    7.2766    2.4396 O   0  0  0  0  0  0
    0.0845    3.1199    3.6677 C   0  0  0  0  0  0
   -0.4916    8.0331    0.0982 C   0  0  0  0  0  0
    1.2938    2.1880    3.5027 C   0  0  0  0  0  0
   -0.6950    6.9559   -0.7934 O   0  0  0  0  0  0
    0.9203    0.7056    3.6488 C   0  0  0  0  0  0
    2.0930   -0.2324    3.3277 C   0  0  0  0  0  0
    2.8468    0.1801    2.0550 C   0  0  0  0  0  0
    4.2019   -0.5289    1.9161 C   0  0  0  0  0  0
    5.1826    0.2432    1.0216 C   0  0  0  0  0  0
    6.5808   -0.3914    0.9943 C   0  0  0  0  0  0
    7.5806    0.4199    0.1575 C   0  0  0  0  0  0
    8.3139   -0.4399   -0.8823 C   0  0  0  0  0  0
    7.3534   -1.1205   -1.8682 C   0  0  0  0  0  0
    6.2423   -1.9046   -1.1612 C   0  0  0  0  0  0
   -1.1152    6.8404    3.6356 H   0  0  0  0  0  0
   -0.7115    4.7166    1.4785 H   0  0  0  0  0  0
   -2.5166    6.2438    0.9765 H   0  0  0  0  0  0
    1.4177    4.6542    2.9194 H   0  0  0  0  0  0
    0.4651    5.1564    4.3001 H   0  0  0  0  0  0
   -2.5072    8.6345    0.4197 H   0  0  0  0  0  0
   -3.6540    8.1922    2.3168 H   0  0  0  0  0  0
   -0.3009    3.0369    4.6849 H   0  0  0  0  0  0
   -0.7181    2.7924    3.0055 H   0  0  0  0  0  0
   -0.2778    8.9352   -0.4748 H   0  0  0  0  0  0
    0.4049    7.8235    0.6828 H   0  0  0  0  0  0
   -1.1171   10.1418    1.5507 H   0  0  0  0  0  0
   -2.2301    9.4849    2.5838 H   0  0  0  0  0  0
    1.7474    2.3527    2.5245 H   0  0  0  0  0  0
    2.0532    2.4450    4.2423 H   0  0  0  0  0  0
   -1.4548    7.1402   -1.3256 H   0  0  0  0  0  0
    0.5738    0.5176    4.6659 H   0  0  0  0  0  0
    0.0820    0.4763    2.9898 H   0  0  0  0  0  0
    2.7858   -0.2480    4.1701 H   0  0  0  0  0  0
    1.7216   -1.2517    3.2147 H   0  0  0  0  0  0
    2.2314   -0.0399    1.1817 H   0  0  0  0  0  0
    3.0016    1.2598    2.0593 H   0  0  0  0  0  0
    4.6429   -0.6646    2.9045 H   0  0  0  0  0  0
    4.0479   -1.5283    1.5071 H   0  0  0  0  0  0
    4.7865    0.2913    0.0064 H   0  0  0  0  0  0
    5.2590    1.2732    1.3722 H   0  0  0  0  0  0
    6.9554   -0.4870    2.0143 H   0  0  0  0  0  0
    6.5115   -1.4041    0.5949 H   0  0  0  0  0  0
    7.0556    1.2313   -0.3483 H   0  0  0  0  0  0
    8.3100    0.8893    0.8189 H   0  0  0  0  0  0
    9.0193    0.1821   -1.4349 H   0  0  0  0  0  0
    8.9069   -1.1996   -0.3715 H   0  0  0  0  0  0
    6.9040   -0.3696   -2.5191 H   0  0  0  0  0  0
    7.9123   -1.7962   -2.5166 H   0  0  0  0  0  0
    5.5778   -2.3755   -1.8858 H   0  0  0  0  0  0
    6.6559   -2.6909   -0.5291 H   0  0  0  0  0  0
    5.6380   -1.2508   -0.5317 H   0  0  0  0  0  0
   -1.4096    9.3003    2.0255 N   0  3  0  0  0  0
   -0.6622    8.9710    2.6212 H   0  0  0  0  0  0
  1  2  2  0  0  0
  1  3  1  0  0  0
  1 21  1  0  0  0
  2  4  1  0  0  0
  2 22  1  0  0  0
  3  5  1  0  0  0
  3  6  1  0  0  0
  3 23  1  0  0  0
  4  7  1  0  0  0
  4 24  1  0  0  0
  4 25  1  0  0  0
  5  8  1  0  0  0
  5 26  1  0  0  0
  5 58  1  0  0  0
  6 27  1  0  0  0
  7  9  1  0  0  0
  7 28  1  0  0  0
  7 29  1  0  0  0
  8 10  1  0  0  0
  8 30  1  0  0  0
  8 31  1  0  0  0
  9 11  1  0  0  0
  9 34  1  0  0  0
  9 35  1  0  0  0
 10 36  1  0  0  0
 11 12  1  0  0  0
 11 37  1  0  0  0
 11 38  1  0  0  0
 12 13  1  0  0  0
 12 39  1  0  0  0
 12 40  1  0  0  0
 13 14  1  0  0  0
 13 41  1  0  0  0
 13 42  1  0  0  0
 14 15  1  0  0  0
 14 43  1  0  0  0
 14 44  1  0  0  0
 15 16  1  0  0  0
 15 45  1  0  0  0
 15 46  1  0  0  0
 16 17  1  0  0  0
 16 47  1  0  0  0
 16 48  1  0  0  0
 17 18  1  0  0  0
 17 49  1  0  0  0
 17 50  1  0  0  0
 18 19  1  0  0  0
 18 51  1  0  0  0
 18 52  1  0  0  0
 19 20  1  0  0  0
 19 53  1  0  0  0
 19 54  1  0  0  0
 20 55  1  0  0  0
 20 56  1  0  0  0
 20 57  1  0  0  0
 32 58  1  0  0  0
 33 58  1  0  0  0
 58 59  1  0  0  0
M  CHG  1  58   1
M  END
> <i_ionizer_Ion_state_n>
1

> <i_ionizer_Tot_Q>
1

> <s_ionizer_Ion_centers>
58

> <s_ionizer_Ion_types>
N5

> <s_ionizer_Ion_ctrs_in>
9

> <r_ionizer_Ionization_penalty>
0.000187331

> <r_ionizer_Ionization_penalty_charging>
0.000187331

> <r_ionizer_Ionization_penalty_neutral>
0

> <s_st_Chirality_1>
3_R_6_5_1_23

> <s_st_Chirality_2>
5_S_58_3_8_26

> <s_st_EZ_1>
3_1_2_4_E

> <i_mmod_Serial_Number-OPLS-2005>
189

> <i_i_glide_lignum>
187

> <r_i_docking_score>
-4.02707

> <r_i_glide_gscore>
-4.02707

> <r_i_glide_lipo>
-1.61189

> <r_i_glide_hbond>
-0.530894

> <r_i_glide_metal>
0

> <r_i_glide_eburp>
-1.5113

> <r_i_glide_evdw>
-28.3653

> <r_i_glide_ecoul>
-14.7857

> <r_i_glide_erotb>
3.25699

> <r_i_glide_esite>
0.117819

> <r_i_glide_emodel>
-78.8633

> <r_i_glide_energy>
-43.151

> <r_i_glide_einternal>
18.5307

> <i_i_glide_confnum>
349

> <i_i_glide_posenum>
485

$$$$
C00104
                    3D
 Structure written by MMmdl.
 38 40  0  0  1  0            999 V2000
    0.5934    5.3824    1.8317 N   0  0  0  0  0  0
   -0.2615    6.4025    1.4266 C   0  0  0  0  0  0
    2.0487    5.2428    1.5117 C   0  0  2  0  0  0
   -0.1762    4.5652    2.5805 C   0  0  0  0  0  0
   -1.4880    6.1106    1.9600 C   0  0  0  0  0  0
    0.0956    7.4826    0.6447 N   0  0  0  0  0  0
    2.2083    4.0924    0.7309 O   0  0  0  0  0  0
    2.8391    5.0422    2.8100 C   0  0  1  0  0  0
   -1.4503    4.9360    2.7002 N   0  0  0  0  0  0
   -2.6045    7.0459    1.6839 C   0  0  0  0  0  0
   -0.9118    8.2872    0.4238 C   0  0  0  0  0  0
    3.0455    3.1455    1.3925 C   0  0  1  0  0  0
    2.9559    3.5285    2.8698 C   0  0  1  0  0  0
    4.1009    5.6784    2.7418 O   0  0  0  0  0  0
   -2.2277    8.0965    0.9156 N   0  0  0  0  0  0
   -3.7488    6.8889    2.1044 O   0  0  0  0  0  0
    2.5778    1.7189    1.0828 C   0  0  0  0  0  0
    4.0700    3.0930    3.6259 O   0  0  0  0  0  0
    3.6893    0.9442    0.6857 O   0  0  0  0  0  0
    4.2136   -0.3756    1.6167 P   0  0  0  0  0  0
    2.8698   -0.7464    2.5927 O   0  0  0  0  0  0
    4.4492   -1.5153    0.7000 O   0  0  0  0  0  0
    1.2229   -0.2673    3.0963 P   0  0  0  0  0  0
    1.3786    1.2526    3.3305 O   0  0  0  0  0  0
    2.3039    6.1481    0.9600 H   0  0  0  0  0  0
    0.2063    3.6718    3.0519 H   0  0  0  0  0  0
    2.2998    5.4439    3.6694 H   0  0  0  0  0  0
   -0.8089    9.1933   -0.1750 H   0  0  0  0  0  0
    4.0656    3.2941    1.0342 H   0  0  0  0  0  0
    2.0471    3.1177    3.3069 H   0  0  0  0  0  0
    4.5394    5.3498    1.9704 H   0  0  0  0  0  0
   -2.9343    8.7791    0.6850 H   0  0  0  0  0  0
    2.1142    1.2663    1.9594 H   0  0  0  0  0  0
    1.8321    1.7236    0.2876 H   0  0  0  0  0  0
    4.0658    2.1453    3.6137 H   0  0  0  0  0  0
    5.3178    0.0994    2.4807 O   0  5  0  0  0  0
    0.9935   -1.1244    4.3613 O   0  5  0  0  0  0
    0.3855   -0.6640    1.8591 O   0  5  0  0  0  0
  1  2  1  0  0  0
  1  3  1  0  0  0
  1  4  1  0  0  0
  2  5  2  0  0  0
  2  6  1  0  0  0
  3  7  1  0  0  0
  3  8  1  0  0  0
  3 25  1  0  0  0
  4  9  2  0  0  0
  4 26  1  0  0  0
  5 10  1  0  0  0
  5  9  1  0  0  0
  6 11  2  0  0  0
  7 12  1  0  0  0
  8 13  1  0  0  0
  8 14  1  0  0  0
  8 27  1  0  0  0
 10 15  1  0  0  0
 10 16  2  0  0  0
 11 15  1  0  0  0
 11 28  1  0  0  0
 12 17  1  0  0  0
 12 13  1  0  0  0
 12 29  1  0  0  0
 13 18  1  0  0  0
 13 30  1  0  0  0
 14 31  1  0  0  0
 15 32  1  0  0  0
 17 19  1  0  0  0
 17 33  1  0  0  0
 17 34  1  0  0  0
 18 35  1  0  0  0
 19 20  1  0  0  0
 20 21  1  0  0  0
 20 22  2  0  0  0
 20 36  1  0  0  0
 21 23  1  0  0  0
 23 24  2  0  0  0
 23 37  1  0  0  0
 23 38  1  0  0  0
M  CHG  3  36  -1  37  -1  38  -1
M  END
> <i_ionizer_Ion_state_n>
14

> <i_ionizer_Tot_Q>
-3

> <s_ionizer_Ion_centers>
36_37_38

> <s_ionizer_Ion_types>
OM_OM_OM

> <s_ionizer_Ion_ctrs_in>
22_25_26

> <r_ionizer_Ionization_penalty>
4.11125e-05

> <r_ionizer_Ionization_penalty_charging>
2.23767e-05

> <r_ionizer_Ionization_penalty_neutral>
1.87357e-05

> <s_st_Chirality_1>
3_R_7_1_8_25

> <s_st_Chirality_2>
8_R_14_3_13_27

> <s_st_Chirality_3>
12_R_7_13_17_29

> <s_st_Chirality_4>
13_R_18_8_12_30

> <i_mmod_Serial_Number-OPLS-2005>
74

> <i_i_glide_lignum>
73

> <r_i_docking_score>
-4.02093

> <r_i_glide_gscore>
-4.02093

> <r_i_glide_lipo>
-0.502489

> <r_i_glide_hbond>
-0.829449

> <r_i_glide_metal>
0

> <r_i_glide_eburp>
-0.566917

> <r_i_glide_evdw>
-26.1807

> <r_i_glide_ecoul>
-8.32805

> <r_i_glide_erotb>
0.627005

> <r_i_glide_esite>
0.178186

> <r_i_glide_emodel>
-70.4698

> <r_i_glide_energy>
-34.5088

> <r_i_glide_einternal>
9.12858

> <i_i_glide_confnum>
39

> <i_i_glide_posenum>
698

$$$$
C01060
                    3D
 Structure written by MMmdl.
 24 24  0  0  1  0            999 V2000
    4.1546   -0.1516    1.0051 C   0  0  0  0  0  0
    3.2951   -0.6977    1.9821 C   0  0  0  0  0  0
    4.2574    1.2490    0.8723 C   0  0  0  0  0  0
    4.9696   -1.0640    0.1010 C   0  0  0  0  0  0
    2.5465    0.1496    2.8219 C   0  0  0  0  0  0
    3.5091    2.0971    1.7115 C   0  0  0  0  0  0
    6.1035   -0.3411   -0.6649 C   0  0  1  0  0  0
    2.6529    1.5484    2.6868 C   0  0  0  0  0  0
    1.2510   -0.6971    4.3011 I   0  0  0  0  0  0
    3.6769    4.2207    1.5003 I   0  0  0  0  0  0
    7.3086   -0.0250    0.2335 C   0  0  0  0  0  0
    1.9287    2.3724    3.4983 O   0  0  0  0  0  0
    8.0681    0.9045   -0.1216 O   0  0  0  0  0  0
    3.2129   -1.7687    2.0971 H   0  0  0  0  0  0
    4.9132    1.6776    0.1288 H   0  0  0  0  0  0
    5.3767   -1.8839    0.6953 H   0  0  0  0  0  0
    4.2863   -1.5276   -0.6117 H   0  0  0  0  0  0
    5.7104    0.5888   -1.0799 H   0  0  0  0  0  0
    7.2892   -0.6460   -2.2942 H   0  0  0  0  0  0
    6.9739   -2.0133   -1.4324 H   0  0  0  0  0  0
    2.0849    3.2882    3.3247 H   0  0  0  0  0  0
    6.5766   -1.1581   -1.7944 N   0  3  0  0  0  0
    5.8075   -1.3693   -2.4132 H   0  0  0  0  0  0
    7.4359   -0.7039    1.2754 O   0  5  0  0  0  0
  1  2  2  0  0  0
  1  3  1  0  0  0
  1  4  1  0  0  0
  2  5  1  0  0  0
  2 14  1  0  0  0
  3  6  2  0  0  0
  3 15  1  0  0  0
  4  7  1  0  0  0
  4 16  1  0  0  0
  4 17  1  0  0  0
  5  8  2  0  0  0
  5  9  1  0  0  0
  6 10  1  0  0  0
  6  8  1  0  0  0
  7 11  1  0  0  0
  7 18  1  0  0  0
  7 22  1  0  0  0
  8 12  1  0  0  0
 11 13  2  0  0  0
 11 24  1  0  0  0
 12 21  1  0  0  0
 19 22  1  0  0  0
 20 22  1  0  0  0
 22 23  1  0  0  0
M  CHG  2  22   1  24  -1
M  END
> <i_ionizer_Ion_state_n>
5

> <i_ionizer_Tot_Q>
0

> <s_ionizer_Ion_centers>
22_24

> <s_ionizer_Ion_types>
N5_OM

> <s_ionizer_Ion_ctrs_in>
12_14

> <r_ionizer_Ionization_penalty>
0.00137171

> <r_ionizer_Ionization_penalty_charging>
0.000779521

> <r_ionizer_Ionization_penalty_neutral>
0.00059219

> <s_st_Chirality_1>
7_S_22_11_4_18

> <s_st_EZ_1>
3_1_2_5_Z

> <i_mmod_Serial_Number-OPLS-2005>
383

> <i_i_glide_lignum>
379

> <r_i_docking_score>
-4.00371

> <r_i_glide_gscore>
-4.00371

> <r_i_glide_lipo>
-1.02655

> <r_i_glide_hbond>
-0.184653

> <r_i_glide_metal>
0

> <r_i_glide_eburp>
-0.507683

> <r_i_glide_evdw>
-20.1903

> <r_i_glide_ecoul>
-1.42325

> <r_i_glide_erotb>
0.24266

> <r_i_glide_esite>
-0.769942

> <r_i_glide_emodel>
-38.965

> <r_i_glide_energy>
-21.6135

> <r_i_glide_einternal>
3.66384

> <i_i_glide_confnum>
3

> <i_i_glide_posenum>
737

$$$$
C02934
                    3D
 Structure written by MMmdl.
 59 58  0  0  1  0            999 V2000
   -1.5244    8.3864    1.8177 C   0  0  0  0  0  0
   -0.7857    7.0961    1.4158 C   0  0  0  0  0  0
   -2.6624    8.1635    2.8226 C   0  0  0  0  0  0
   -0.2097    6.3498    2.6281 C   0  0  0  0  0  0
   -2.7650    9.1740    3.9852 C   0  0  2  0  0  0
   -3.4389    7.2162    2.6863 O   0  0  0  0  0  0
    0.5208    5.0582    2.2327 C   0  0  0  0  0  0
   -4.1904    9.2853    4.5745 C   0  0  0  0  0  0
    0.8067    4.1500    3.4376 C   0  0  0  0  0  0
   -4.6874    8.0569    5.0736 O   0  0  0  0  0  0
    1.5902    2.8870    3.0512 C   0  0  0  0  0  0
    0.8904    1.5973    3.5041 C   0  0  0  0  0  0
    1.5906    0.3329    2.9852 C   0  0  0  0  0  0
    2.9627    0.1089    3.6374 C   0  0  0  0  0  0
    4.1169    0.1985    2.6284 C   0  0  0  0  0  0
    3.7832   -0.4747    1.2892 C   0  0  0  0  0  0
    5.0386   -0.8417    0.4845 C   0  0  0  0  0  0
    5.7993    0.3941   -0.0178 C   0  0  0  0  0  0
    7.1753    0.0428   -0.6016 C   0  0  0  0  0  0
    8.0326   -0.7804    0.3662 C   0  0  0  0  0  0
   -0.8140    9.0902    2.2523 H   0  0  0  0  0  0
   -1.9383    8.8654    0.9298 H   0  0  0  0  0  0
   -1.4668    6.4337    0.8792 H   0  0  0  0  0  0
    0.0234    7.3356    0.7240 H   0  0  0  0  0  0
    0.4777    7.0050    3.1646 H   0  0  0  0  0  0
   -1.0156    6.1118    3.3236 H   0  0  0  0  0  0
   -2.0825    8.8666    4.7783 H   0  0  0  0  0  0
   -0.0771    4.5126    1.5016 H   0  0  0  0  0  0
    1.4596    5.3096    1.7376 H   0  0  0  0  0  0
   -4.1904   10.0003    5.3981 H   0  0  0  0  0  0
   -4.8870    9.6774    3.8326 H   0  0  0  0  0  0
   -2.3249   11.1648    4.2472 H   0  0  0  0  0  0
   -1.3447   10.3926    3.1646 H   0  0  0  0  0  0
    1.3675    4.7089    4.1879 H   0  0  0  0  0  0
   -0.1352    3.8628    3.9067 H   0  0  0  0  0  0
   -5.6240    8.1157    5.1846 H   0  0  0  0  0  0
    1.7292    2.8633    1.9696 H   0  0  0  0  0  0
    2.5879    2.9311    3.4897 H   0  0  0  0  0  0
    0.8522    1.5691    4.5939 H   0  0  0  0  0  0
   -0.1444    1.6060    3.1592 H   0  0  0  0  0  0
    0.9557   -0.5347    3.1696 H   0  0  0  0  0  0
    1.7107    0.4032    1.9034 H   0  0  0  0  0  0
    3.1135    0.8463    4.4269 H   0  0  0  0  0  0
    2.9791   -0.8687    4.1209 H   0  0  0  0  0  0
    4.3665    1.2461    2.4552 H   0  0  0  0  0  0
    5.0078   -0.2645    3.0547 H   0  0  0  0  0  0
    3.1945   -1.3745    1.4727 H   0  0  0  0  0  0
    3.1540    0.1901    0.6961 H   0  0  0  0  0  0
    5.7011   -1.4485    1.1031 H   0  0  0  0  0  0
    4.7552   -1.4632   -0.3659 H   0  0  0  0  0  0
    5.2033    0.9033   -0.7764 H   0  0  0  0  0  0
    5.9239    1.1017    0.8029 H   0  0  0  0  0  0
    7.0477   -0.5144   -1.5304 H   0  0  0  0  0  0
    7.7074    0.9586   -0.8618 H   0  0  0  0  0  0
    9.0016   -1.0138   -0.0755 H   0  0  0  0  0  0
    8.2124   -0.2362    1.2938 H   0  0  0  0  0  0
    7.5466   -1.7232    0.6187 H   0  0  0  0  0  0
   -2.2930   10.4862    3.5001 N   0  3  0  0  0  0
   -2.8803   10.7873    2.7357 H   0  0  0  0  0  0
  1  2  1  0  0  0
  1  3  1  0  0  0
  1 21  1  0  0  0
  1 22  1  0  0  0
  2  4  1  0  0  0
  2 23  1  0  0  0
  2 24  1  0  0  0
  3  5  1  0  0  0
  3  6  2  0  0  0
  4  7  1  0  0  0
  4 25  1  0  0  0
  4 26  1  0  0  0
  5  8  1  0  0  0
  5 27  1  0  0  0
  5 58  1  0  0  0
  7  9  1  0  0  0
  7 28  1  0  0  0
  7 29  1  0  0  0
  8 10  1  0  0  0
  8 30  1  0  0  0
  8 31  1  0  0  0
  9 11  1  0  0  0
  9 34  1  0  0  0
  9 35  1  0  0  0
 10 36  1  0  0  0
 11 12  1  0  0  0
 11 37  1  0  0  0
 11 38  1  0  0  0
 12 13  1  0  0  0
 12 39  1  0  0  0
 12 40  1  0  0  0
 13 14  1  0  0  0
 13 41  1  0  0  0
 13 42  1  0  0  0
 14 15  1  0  0  0
 14 43  1  0  0  0
 14 44  1  0  0  0
 15 16  1  0  0  0
 15 45  1  0  0  0
 15 46  1  0  0  0
 16 17  1  0  0  0
 16 47  1  0  0  0
 16 48  1  0  0  0
 17 18  1  0  0  0
 17 49  1  0  0  0
 17 50  1  0  0  0
 18 19  1  0  0  0
 18 51  1  0  0  0
 18 52  1  0  0  0
 19 20  1  0  0  0
 19 53  1  0  0  0
 19 54  1  0  0  0
 20 55  1  0  0  0
 20 56  1  0  0  0
 20 57  1  0  0  0
 32 58  1  0  0  0
 33 58  1  0  0  0
 58 59  1  0  0  0
M  CHG  1  58   1
M  END
> <i_ionizer_Ion_state_n>
1

> <i_ionizer_Tot_Q>
1

> <s_ionizer_Ion_centers>
58

> <s_ionizer_Ion_types>
N5

> <s_ionizer_Ion_ctrs_in>
9

> <r_ionizer_Ionization_penalty>
0.000187331

> <r_ionizer_Ionization_penalty_charging>
0.000187331

> <r_ionizer_Ionization_penalty_neutral>
0

> <s_st_Chirality_1>
5_S_58_3_8_27

> <i_mmod_Serial_Number-OPLS-2005>
515

> <i_i_glide_lignum>
509

> <r_i_docking_score>
-3.98894

> <r_i_glide_gscore>
-3.98894

> <r_i_glide_lipo>
-1.32126

> <r_i_glide_hbond>
-0.966247

> <r_i_glide_metal>
0

> <r_i_glide_eburp>
-1.9113

> <r_i_glide_evdw>
-30.8206

> <r_i_glide_ecoul>
-11.2985

> <r_i_glide_erotb>
3.48963

> <r_i_glide_esite>
0.315729

> <r_i_glide_emodel>
-75.8531

> <r_i_glide_energy>
-42.1191

> <r_i_glide_einternal>
18.4278

> <i_i_glide_confnum>
103

> <i_i_glide_posenum>
474

$$$$
C02373
                    3D
 Structure written by MMmdl.
 19 18  0  0  1  0            999 V2000
    1.9156    1.2439    4.1387 C   0  0  0  0  0  0
    2.1142   -0.2858    4.1344 C   0  0  0  0  0  0
    1.0214    1.7618    2.9969 C   0  0  0  0  0  0
    0.7648   -1.0093    4.2607 C   0  0  0  0  0  0
    2.8698   -0.7773    2.8881 C   0  0  0  0  0  0
    0.7768    3.2650    3.0989 C   0  0  0  0  0  0
   -0.3010    3.6995    3.4994 O   0  0  0  0  0  0
    1.5060    1.5558    5.1008 H   0  0  0  0  0  0
    2.8934    1.7223    4.0590 H   0  0  0  0  0  0
    2.7060   -0.5527    5.0111 H   0  0  0  0  0  0
    1.4838    1.5521    2.0318 H   0  0  0  0  0  0
    0.0541    1.2598    3.0049 H   0  0  0  0  0  0
    0.8997   -2.0906    4.3004 H   0  0  0  0  0  0
    0.2411   -0.7127    5.1700 H   0  0  0  0  0  0
    0.1145   -0.7862    3.4143 H   0  0  0  0  0  0
    2.9733   -1.8627    2.8965 H   0  0  0  0  0  0
    2.3458   -0.5021    1.9724 H   0  0  0  0  0  0
    3.8757   -0.3616    2.8359 H   0  0  0  0  0  0
    1.6068    3.9060    2.8008 H   0  0  0  0  0  0
  1  2  1  0  0  0
  1  3  1  0  0  0
  1  8  1  0  0  0
  1  9  1  0  0  0
  2  4  1  0  0  0
  2  5  1  0  0  0
  2 10  1  0  0  0
  3  6  1  0  0  0
  3 11  1  0  0  0
  3 12  1  0  0  0
  4 13  1  0  0  0
  4 14  1  0  0  0
  4 15  1  0  0  0
  5 16  1  0  0  0
  5 17  1  0  0  0
  5 18  1  0  0  0
  6  7  2  0  0  0
  6 19  1  0  0  0
M  END
> <i_ionizer_Ion_state_n>
0

> <i_ionizer_Tot_Q>
0

> <s_ionizer_Ion_centers>


> <s_ionizer_Ion_types>


> <s_ionizer_Ion_ctrs_in>


> <r_ionizer_Ionization_penalty>
0

> <r_ionizer_Ionization_penalty_charging>
0

> <r_ionizer_Ionization_penalty_neutral>
0

> <i_mmod_Serial_Number-OPLS-2005>
487

> <i_i_glide_lignum>
482

> <r_i_docking_score>
-3.95268

> <r_i_glide_gscore>
-3.95268

> <r_i_glide_lipo>
-0.474577

> <r_i_glide_hbond>
-0.5

> <r_i_glide_metal>
0

> <r_i_glide_eburp>
-2.5

> <r_i_glide_evdw>
-14.3386

> <r_i_glide_ecoul>
-2.57543

> <r_i_glide_erotb>
1.39661

> <r_i_glide_esite>
-0.470081

> <r_i_glide_emodel>
-20.8139

> <r_i_glide_energy>
-16.914

> <r_i_glide_einternal>
3.05803

> <i_i_glide_confnum>
1

> <i_i_glide_posenum>
333

$$$$
C00114
                    3D
 Structure written by MMmdl.
 21 20  0  0  1  0            999 V2000
    3.2283    0.2267    4.5247 C   0  0  0  0  0  0
    2.4662   -0.0601    3.2689 N   0  3  0  0  0  0
    4.7283    0.5476    4.3427 C   0  0  0  0  0  0
    1.1096   -0.5362    3.6473 C   0  0  0  0  0  0
    2.3194    1.1657    2.4402 C   0  0  0  0  0  0
    3.1312   -1.1234    2.4702 C   0  0  0  0  0  0
    5.3627    0.5007    5.6020 O   0  0  0  0  0  0
    2.7542    1.0636    5.0412 H   0  0  0  0  0  0
    3.1352   -0.6289    5.1965 H   0  0  0  0  0  0
    5.2218   -0.1717    3.6897 H   0  0  0  0  0  0
    4.8837    1.5413    3.9238 H   0  0  0  0  0  0
    0.5059   -0.7619    2.7668 H   0  0  0  0  0  0
    1.1621   -1.4444    4.2500 H   0  0  0  0  0  0
    0.5733    0.2159    4.2282 H   0  0  0  0  0  0
    1.6712    0.9820    1.5819 H   0  0  0  0  0  0
    1.8802    1.9817    3.0162 H   0  0  0  0  0  0
    3.2754    1.5098    2.0453 H   0  0  0  0  0  0
    2.5192   -1.4092    1.6133 H   0  0  0  0  0  0
    4.0937   -0.7974    2.0756 H   0  0  0  0  0  0
    3.2995   -2.0201    3.0687 H   0  0  0  0  0  0
    5.3377   -0.3883    5.9235 H   0  0  0  0  0  0
  1  2  1  0  0  0
  1  3  1  0  0  0
  1  8  1  0  0  0
  1  9  1  0  0  0
  2  4  1  0  0  0
  2  5  1  0  0  0
  2  6  1  0  0  0
  3  7  1  0  0  0
  3 10  1  0  0  0
  3 11  1  0  0  0
  4 12  1  0  0  0
  4 13  1  0  0  0
  4 14  1  0  0  0
  5 15  1  0  0  0
  5 16  1  0  0  0
  5 17  1  0  0  0
  6 18  1  0  0  0
  6 19  1  0  0  0
  6 20  1  0  0  0
  7 21  1  0  0  0
M  CHG  1   2   1
M  END
> <i_ionizer_Ion_state_n>
0

> <i_ionizer_Tot_Q>
1

> <s_ionizer_Ion_centers>


> <s_ionizer_Ion_types>


> <s_ionizer_Ion_ctrs_in>


> <r_ionizer_Ionization_penalty>
0

> <r_ionizer_Ionization_penalty_charging>
0

> <r_ionizer_Ionization_penalty_neutral>
0

> <i_mmod_Serial_Number-OPLS-2005>
81

> <i_i_glide_lignum>
80

> <r_i_docking_score>
-3.94335

> <r_i_glide_gscore>
-3.94335

> <r_i_glide_lipo>
-0.418393

> <r_i_glide_hbond>
-0.45

> <r_i_glide_metal>
0

> <r_i_glide_eburp>
-2.5

> <r_i_glide_evdw>
-11.9411

> <r_i_glide_ecoul>
-5.22744

> <r_i_glide_erotb>
1.31644

> <r_i_glide_esite>
-0.413366

> <r_i_glide_emodel>
-21.2393

> <r_i_glide_energy>
-17.1686

> <r_i_glide_einternal>
0.851105

> <i_i_glide_confnum>
1

> <i_i_glide_posenum>
36

$$$$
C00689
                    3D
 Structure written by MMmdl.
 48 49  0  0  1  0            999 V2000
    2.2627    1.0141    0.3771 C   0  0  1  0  0  0
    2.0212    2.1671    1.1240 O   0  0  0  0  0  0
    3.6273    0.7274    0.2748 O   0  0  0  0  0  0
    1.5916   -0.1814    1.0761 C   0  0  1  0  0  0
    2.5199    3.3647    0.5701 C   0  0  1  0  0  0
    4.3265    0.6346    1.5207 C   0  0  1  0  0  0
    2.1711   -0.3235    2.4928 C   0  0  2  0  0  0
    0.1841   -0.0510    1.0868 O   0  0  0  0  0  0
    1.7048    4.5236    0.5720 O   0  0  0  0  0  0
    3.5585    4.1989    1.3686 C   0  0  1  0  0  0
    3.7028   -0.4734    2.4078 C   0  0  2  0  0  0
    5.8067    0.4017    1.1692 C   0  0  0  0  0  0
    1.6489   -1.5053    3.0710 O   0  0  0  0  0  0
    1.1629    5.4025    1.5640 C   0  0  1  0  0  0
    3.1201    4.3210    2.8419 C   0  0  2  0  0  0
    4.8595    3.6204    1.2568 O   0  0  0  0  0  0
    4.2136   -0.3701    3.7216 O   0  0  0  0  0  0
    5.9420   -0.6706    0.2520 O   0  0  0  0  0  0
    1.7111    4.9622    2.9499 C   0  0  2  0  0  0
    1.5535    6.8342    1.1588 C   0  0  0  0  0  0
    4.0700    5.0903    3.5772 O   0  0  0  0  0  0
    7.5887   -0.9085   -0.4056 P   0  0  0  0  0  0
    0.8029    4.0604    3.5785 O   0  0  0  0  0  0
    1.0526    7.1883   -0.1252 O   0  0  0  0  0  0
    8.0602    0.5499   -0.5982 O   0  0  0  0  0  0
    1.8625    1.1321   -0.6312 H   0  0  0  0  0  0
    1.8267   -1.0732    0.4926 H   0  0  0  0  0  0
    2.8781    3.1123   -0.4370 H   0  0  0  0  0  0
    4.2480    1.5997    2.0242 H   0  0  0  0  0  0
    1.8973    0.5346    3.1094 H   0  0  0  0  0  0
   -0.0999    0.0483    0.1903 H   0  0  0  0  0  0
    3.6092    5.1903    0.9164 H   0  0  0  0  0  0
    3.9579   -1.4522    1.9983 H   0  0  0  0  0  0
    6.2720    1.3215    0.8124 H   0  0  0  0  0  0
    6.3549    0.1087    2.0647 H   0  0  0  0  0  0
    2.0110   -1.5789    3.9420 H   0  0  0  0  0  0
    0.0747    5.3155    1.5353 H   0  0  0  0  0  0
    3.0999    3.3288    3.2950 H   0  0  0  0  0  0
    4.8308    2.7226    1.6139 H   0  0  0  0  0  0
    4.0636   -1.2061    4.1583 H   0  0  0  0  0  0
    1.7813    5.8437    3.5890 H   0  0  0  0  0  0
    1.1791    7.5489    1.8923 H   0  0  0  0  0  0
    2.6394    6.9329    1.1499 H   0  0  0  0  0  0
    4.0325    4.8244    4.5062 H   0  0  0  0  0  0
    0.7534    3.2520    3.0505 H   0  0  0  0  0  0
    0.2027    7.6356   -0.0108 H   0  0  0  0  0  0
    8.2737   -1.7003    0.7302 O   0  5  0  0  0  0
    7.2921   -1.6968   -1.6996 O   0  5  0  0  0  0
  1  2  1  0  0  0
  1  3  1  0  0  0
  1  4  1  0  0  0
  1 26  1  0  0  0
  2  5  1  0  0  0
  3  6  1  0  0  0
  4  7  1  0  0  0
  4  8  1  0  0  0
  4 27  1  0  0  0
  5  9  1  0  0  0
  5 10  1  0  0  0
  5 28  1  0  0  0
  6 11  1  0  0  0
  6 12  1  0  0  0
  6 29  1  0  0  0
  7 13  1  0  0  0
  7 11  1  0  0  0
  7 30  1  0  0  0
  8 31  1  0  0  0
  9 14  1  0  0  0
 10 15  1  0  0  0
 10 16  1  0  0  0
 10 32  1  0  0  0
 11 17  1  0  0  0
 11 33  1  0  0  0
 12 18  1  0  0  0
 12 34  1  0  0  0
 12 35  1  0  0  0
 13 36  1  0  0  0
 14 19  1  0  0  0
 14 20  1  0  0  0
 14 37  1  0  0  0
 15 21  1  0  0  0
 15 19  1  0  0  0
 15 38  1  0  0  0
 16 39  1  0  0  0
 17 40  1  0  0  0
 18 22  1  0  0  0
 19 23  1  0  0  0
 19 41  1  0  0  0
 20 24  1  0  0  0
 20 42  1  0  0  0
 20 43  1  0  0  0
 21 44  1  0  0  0
 22 25  2  0  0  0
 22 47  1  0  0  0
 22 48  1  0  0  0
 23 45  1  0  0  0
 24 46  1  0  0  0
M  CHG  2  47  -1  48  -1
M  END
> <i_ionizer_Ion_state_n>
3

> <i_ionizer_Tot_Q>
-2

> <s_ionizer_Ion_centers>
47_48

> <s_ionizer_Ion_types>
OM_OM

> <s_ionizer_Ion_ctrs_in>
25_26

> <r_ionizer_Ionization_penalty>
1.49178e-05

> <r_ionizer_Ionization_penalty_charging>
1.49178e-05

> <r_ionizer_Ionization_penalty_neutral>
0

> <s_st_Chirality_1>
1_R_2_3_4_26

> <s_st_Chirality_2>
4_R_8_1_7_27

> <s_st_Chirality_3>
5_R_2_9_10_28

> <s_st_Chirality_4>
6_R_3_11_12_29

> <s_st_Chirality_5>
7_S_13_4_11_30

> <s_st_Chirality_6>
10_R_16_5_15_32

> <s_st_Chirality_7>
11_R_17_7_6_33

> <s_st_Chirality_8>
14_R_9_19_20_37

> <s_st_Chirality_9>
15_S_21_10_19_38

> <s_st_Chirality_10>
19_R_23_15_14_41

> <i_mmod_Serial_Number-OPLS-2005>
321

> <i_i_glide_lignum>
318

> <r_i_docking_score>
-3.93446

> <r_i_glide_gscore>
-3.93446

> <r_i_glide_lipo>
-0.95346

> <r_i_glide_hbond>
-0.937877

> <r_i_glide_metal>
0

> <r_i_glide_eburp>
-0.604041

> <r_i_glide_evdw>
-3.49105

> <r_i_glide_ecoul>
-9.66179

> <r_i_glide_erotb>
0.640291

> <r_i_glide_esite>
-0.833913

> <r_i_glide_emodel>
-23.4713

> <r_i_glide_energy>
-13.1528

> <r_i_glide_einternal>
13.7734

> <i_i_glide_confnum>
127

> <i_i_glide_posenum>
608

$$$$
C00327
                    3D
 Structure written by MMmdl.
 25 24  0  0  1  0            999 V2000
    3.0832    1.5108    3.0094 C   0  0  0  0  0  0
    2.3697    2.6592    2.2724 C   0  0  0  0  0  0
    2.1338    0.5743    3.7928 C   0  0  1  0  0  0
    1.7227    3.6614    3.2375 C   0  0  0  0  0  0
    1.3032   -0.3208    2.8613 C   0  0  0  0  0  0
    1.0140    4.6991    2.5016 N   0  0  0  0  0  0
    0.2984    0.1845    2.3119 O   0  0  0  0  0  0
   -0.3174    4.8393    2.4995 C   0  0  0  0  0  0
   -0.7216    5.8779    1.7694 N   0  0  0  0  0  0
   -1.0960    4.1015    3.0987 O   0  0  0  0  0  0
    3.6744    0.9356    2.2948 H   0  0  0  0  0  0
    3.8015    1.9424    3.7077 H   0  0  0  0  0  0
    3.0780    3.1872    1.6326 H   0  0  0  0  0  0
    1.6060    2.2456    1.6122 H   0  0  0  0  0  0
    1.4679    1.1793    4.4108 H   0  0  0  0  0  0
    1.0259    3.1469    3.9014 H   0  0  0  0  0  0
    2.4854    4.1243    3.8658 H   0  0  0  0  0  0
    2.2518   -0.8764    5.2203 H   0  0  0  0  0  0
    3.5002   -0.8920    4.1462 H   0  0  0  0  0  0
    1.5738    5.3480    1.9692 H   0  0  0  0  0  0
   -1.7096    6.0730    1.7018 H   0  0  0  0  0  0
   -0.0537    6.4634    1.2914 H   0  0  0  0  0  0
    2.8968   -0.2999    4.6992 N   0  3  0  0  0  0
    3.4482    0.2590    5.3336 H   0  0  0  0  0  0
    1.7002   -1.4950    2.6994 O   0  5  0  0  0  0
  1  2  1  0  0  0
  1  3  1  0  0  0
  1 11  1  0  0  0
  1 12  1  0  0  0
  2  4  1  0  0  0
  2 13  1  0  0  0
  2 14  1  0  0  0
  3  5  1  0  0  0
  3 15  1  0  0  0
  3 23  1  0  0  0
  4  6  1  0  0  0
  4 16  1  0  0  0
  4 17  1  0  0  0
  5  7  2  0  0  0
  5 25  1  0  0  0
  6  8  1  0  0  0
  6 20  1  0  0  0
  8  9  1  0  0  0
  8 10  2  0  0  0
  9 21  1  0  0  0
  9 22  1  0  0  0
 18 23  1  0  0  0
 19 23  1  0  0  0
 23 24  1  0  0  0
M  CHG  2  23   1  25  -1
M  END
> <i_ionizer_Ion_state_n>
3

> <i_ionizer_Tot_Q>
0

> <s_ionizer_Ion_centers>
23_25

> <s_ionizer_Ion_types>
N5_OM

> <s_ionizer_Ion_ctrs_in>
6_8

> <r_ionizer_Ionization_penalty>
0.000779521

> <r_ionizer_Ionization_penalty_charging>
0.000779521

> <r_ionizer_Ionization_penalty_neutral>
0

> <s_st_Chirality_1>
3_S_23_5_1_15

> <i_mmod_Serial_Number-OPLS-2005>
192

> <i_i_glide_lignum>
190

> <r_i_docking_score>
-3.93262

> <r_i_glide_gscore>
-3.93262

> <r_i_glide_lipo>
-0.243425

> <r_i_glide_hbond>
-1.05933

> <r_i_glide_metal>
0

> <r_i_glide_eburp>
-2.46069

> <r_i_glide_evdw>
-15.6273

> <r_i_glide_ecoul>
-9.52767

> <r_i_glide_erotb>
2.32317

> <r_i_glide_esite>
-0.289398

> <r_i_glide_emodel>
-48.9434

> <r_i_glide_energy>
-25.1549

> <r_i_glide_einternal>
2.07814

> <i_i_glide_confnum>
3

> <i_i_glide_posenum>
74

$$$$
C00735
                    3D
 Structure written by MMmdl.
 56 59  0  0  1  0            999 V2000
    2.2206    1.1159    2.0746 C   0  0  1  0  0  0
    1.6312    2.3822    2.7254 C   0  0  1  0  0  0
    3.7260    1.1956    1.7934 C   0  0  1  0  0  0
    2.0463   -0.2331    2.7753 C   0  0  0  0  0  0
    1.8852    3.5933    1.7811 C   0  0  1  0  0  0
    0.1231    2.1904    2.9521 C   0  0  0  0  0  0
    3.9812   -0.2349    1.2120 C   0  0  2  0  0  0
    3.9764    2.3798    0.8257 C   0  0  0  0  0  0
    4.5320    1.3891    3.1120 C   0  0  0  0  0  0
    3.1070   -1.1407    2.1212 C   0  0  0  0  0  0
    1.1896    4.9225    2.2446 C   0  0  2  0  0  0
    3.3756    3.7181    1.3209 C   0  0  2  0  0  0
   -0.5408    3.4607    3.4788 C   0  0  0  0  0  0
    5.4618   -0.6676    1.1255 C   0  0  0  0  0  0
    3.4400   -0.3265   -0.0974 O   0  0  0  0  0  0
   -0.2905    4.6381    2.5545 C   0  0  0  0  0  0
    1.3152    5.9580    1.0953 C   0  0  0  0  0  0
    1.8116    5.5164    3.5269 C   0  0  0  0  0  0
    4.2264    4.2607    2.3087 O   0  0  0  0  0  0
    5.8881   -1.4987   -0.0908 C   0  0  0  0  0  0
    6.2839   -0.3255    1.9772 O   0  0  0  0  0  0
   -1.3228    5.3667    2.0800 C   0  0  0  0  0  0
    0.3130    7.1148    1.1802 C   0  0  0  0  0  0
    6.1510   -0.6728   -1.2078 O   0  0  0  0  0  0
   -1.1086    6.5700    1.2659 C   0  0  0  0  0  0
   -2.0213    7.1572    0.6889 O   0  0  0  0  0  0
    1.7147    1.0198    1.1127 H   0  0  0  0  0  0
    2.1051    2.5633    3.6892 H   0  0  0  0  0  0
    1.3578    3.3214    0.8654 H   0  0  0  0  0  0
    2.2402   -0.1366    3.8438 H   0  0  0  0  0  0
    1.0378   -0.6281    2.6520 H   0  0  0  0  0  0
   -0.0486    1.3746    3.6543 H   0  0  0  0  0  0
   -0.3539    1.8998    2.0154 H   0  0  0  0  0  0
    5.0424    2.4938    0.6280 H   0  0  0  0  0  0
    3.5174    2.1567   -0.1371 H   0  0  0  0  0  0
    5.5844    1.5839    2.9075 H   0  0  0  0  0  0
    4.4842    0.5094    3.7531 H   0  0  0  0  0  0
    4.1688    2.2257    3.7048 H   0  0  0  0  0  0
    3.6997   -1.6133    2.9047 H   0  0  0  0  0  0
    2.6353   -1.9413    1.5502 H   0  0  0  0  0  0
    3.4179    4.4148    0.4840 H   0  0  0  0  0  0
   -1.6128    3.2996    3.5955 H   0  0  0  0  0  0
   -0.1498    3.7002    4.4677 H   0  0  0  0  0  0
    4.0919   -0.0381   -0.7176 H   0  0  0  0  0  0
    2.3287    6.3581    1.0584 H   0  0  0  0  0  0
    1.1600    5.4539    0.1405 H   0  0  0  0  0  0
    1.1804    6.3084    3.9310 H   0  0  0  0  0  0
    1.9262    4.7626    4.3056 H   0  0  0  0  0  0
    2.7871    5.9631    3.3443 H   0  0  0  0  0  0
    4.9345    4.7138    1.8778 H   0  0  0  0  0  0
    6.7863   -2.0661    0.1529 H   0  0  0  0  0  0
    5.1027   -2.2100   -0.3463 H   0  0  0  0  0  0
   -2.3409    5.1080    2.3320 H   0  0  0  0  0  0
    0.5098    7.7279    2.0598 H   0  0  0  0  0  0
    0.4056    7.7614    0.3073 H   0  0  0  0  0  0
    5.3325   -0.4991   -1.6482 H   0  0  0  0  0  0
  1  2  1  0  0  0
  1  3  1  0  0  0
  1  4  1  0  0  0
  1 27  1  0  0  0
  2  5  1  0  0  0
  2  6  1  0  0  0
  2 28  1  0  0  0
  3  7  1  0  0  0
  3  8  1  0  0  0
  3  9  1  0  0  0
  4 10  1  0  0  0
  4 30  1  0  0  0
  4 31  1  0  0  0
  5 11  1  0  0  0
  5 12  1  0  0  0
  5 29  1  0  0  0
  6 13  1  0  0  0
  6 32  1  0  0  0
  6 33  1  0  0  0
  7 14  1  0  0  0
  7 15  1  0  0  0
  7 10  1  0  0  0
  8 12  1  0  0  0
  8 34  1  0  0  0
  8 35  1  0  0  0
  9 36  1  0  0  0
  9 37  1  0  0  0
  9 38  1  0  0  0
 10 39  1  0  0  0
 10 40  1  0  0  0
 11 16  1  0  0  0
 11 17  1  0  0  0
 11 18  1  0  0  0
 12 19  1  0  0  0
 12 41  1  0  0  0
 13 16  1  0  0  0
 13 42  1  0  0  0
 13 43  1  0  0  0
 14 20  1  0  0  0
 14 21  2  0  0  0
 15 44  1  0  0  0
 16 22  2  0  0  0
 17 23  1  0  0  0
 17 45  1  0  0  0
 17 46  1  0  0  0
 18 47  1  0  0  0
 18 48  1  0  0  0
 18 49  1  0  0  0
 19 50  1  0  0  0
 20 24  1  0  0  0
 20 51  1  0  0  0
 20 52  1  0  0  0
 22 25  1  0  0  0
 22 53  1  0  0  0
 23 25  1  0  0  0
 23 54  1  0  0  0
 23 55  1  0  0  0
 24 56  1  0  0  0
 25 26  2  0  0  0
M  END
> <i_ionizer_Ion_state_n>
0

> <i_ionizer_Tot_Q>
0

> <s_ionizer_Ion_centers>


> <s_ionizer_Ion_types>


> <s_ionizer_Ion_ctrs_in>


> <r_ionizer_Ionization_penalty>
0

> <r_ionizer_Ionization_penalty_charging>
0

> <r_ionizer_Ionization_penalty_neutral>
0

> <s_st_Chirality_1>
1_S_3_2_4_27

> <s_st_Chirality_2>
2_S_5_1_6_28

> <s_st_Chirality_3>
3_S_7_1_8_9

> <s_st_Chirality_4>
5_S_12_11_2_29

> <s_st_Chirality_5>
7_R_15_14_3_10

> <s_st_Chirality_6>
11_R_16_5_17_18

> <s_st_Chirality_7>
12_S_19_5_8_41

> <s_st_EZ_1>
11_16_22_25_Z

> <i_mmod_Serial_Number-OPLS-2005>
327

> <i_i_glide_lignum>
324

> <r_i_docking_score>
-3.91853

> <r_i_glide_gscore>
-3.91853

> <r_i_glide_lipo>
-1.76547

> <r_i_glide_hbond>
-0.957713

> <r_i_glide_metal>
0

> <r_i_glide_eburp>
-1.04189

> <r_i_glide_evdw>
7.72199

> <r_i_glide_ecoul>
-4.9184

> <r_i_glide_erotb>
0.334066

> <r_i_glide_esite>
-0.613434

> <r_i_glide_emodel>
6.71095

> <r_i_glide_energy>
2.80359

> <r_i_glide_einternal>
5.15996

> <i_i_glide_confnum>
5

> <i_i_glide_posenum>
376

$$$$
C04823
                    3D
 Structure written by MMmdl.
 46 47  0  0  1  0            999 V2000
    0.6184    6.6238    1.2405 N   0  0  0  0  0  0
   -0.1335    7.9029    1.0463 C   0  0  2  0  0  0
    0.4245    5.6165    2.1571 C   0  0  0  0  0  0
    1.6924    6.1885    0.5268 C   0  0  0  0  0  0
   -0.2962    8.5021    2.2996 O   0  0  0  0  0  0
   -1.5283    7.5952    0.4918 C   0  0  1  0  0  0
    1.3697    4.6229    1.9477 C   0  0  0  0  0  0
   -0.5482    5.6477    3.0852 N   0  0  0  0  0  0
   -1.6780    8.6014    2.6423 C   0  0  1  0  0  0
   -2.3681    7.5598    1.7588 C   0  0  1  0  0  0
   -1.9474    8.6005   -0.4108 O   0  0  0  0  0  0
    1.5393    3.3410    2.7126 C   0  0  0  0  0  0
   -1.8390    8.4121    4.1595 C   0  0  0  0  0  0
   -3.7290    7.8401    1.4997 O   0  0  0  0  0  0
    2.6155    2.6215    2.3652 N   0  0  0  0  0  0
    0.7321    2.9952    3.5755 O   0  0  0  0  0  0
   -1.7312    9.6530    4.8358 O   0  0  0  0  0  0
    3.1593    1.4665    3.0763 C   0  0  2  0  0  0
   -2.2603    9.6522    6.5464 P   0  0  0  0  0  0
    2.0283    0.6503    3.7571 C   0  0  0  0  0  0
    4.2795    1.9219    4.0254 C   0  0  0  0  0  0
   -3.6051    8.8972    6.4625 O   0  0  0  0  0  0
    1.2504   -0.2989    2.8319 C   0  0  0  0  0  0
    5.0641    1.0525    4.4697 O   0  0  0  0  0  0
    1.6873   -1.4647    2.6985 O   0  0  0  0  0  0
    0.4986    8.4984    0.3864 H   0  0  0  0  0  0
    2.1171    6.7594   -0.2799 H   0  0  0  0  0  0
   -1.5458    6.6391   -0.0339 H   0  0  0  0  0  0
   -0.6331    4.9097    3.7717 H   0  0  0  0  0  0
   -1.1657    6.4403    3.1898 H   0  0  0  0  0  0
   -1.9958    9.6054    2.3558 H   0  0  0  0  0  0
   -2.2887    6.5724    2.2159 H   0  0  0  0  0  0
   -1.9435    9.4214    0.0607 H   0  0  0  0  0  0
   -2.7665    7.8881    4.3924 H   0  0  0  0  0  0
   -1.0302    7.7851    4.5344 H   0  0  0  0  0  0
   -3.8117    8.7898    1.4435 H   0  0  0  0  0  0
    3.1640    2.9178    1.5712 H   0  0  0  0  0  0
    3.6380    0.8154    2.3424 H   0  0  0  0  0  0
    2.4438    0.0573    4.5724 H   0  0  0  0  0  0
    1.3220    1.3384    4.2239 H   0  0  0  0  0  0
    2.1764    5.0102    0.9032 N   0  3  0  0  0  0
    2.9792    4.5226    0.5235 H   0  0  0  0  0  0
   -1.1021    8.8999    7.2385 O   0  5  0  0  0  0
   -2.3558   11.1651    6.8384 O   0  5  0  0  0  0
    4.3232    3.1408    4.3012 O   0  5  0  0  0  0
    0.2137    0.1502    2.2962 O   0  5  0  0  0  0
  1  2  1  0  0  0
  1  3  1  0  0  0
  1  4  1  0  0  0
  2  5  1  0  0  0
  2  6  1  0  0  0
  2 26  1  0  0  0
  3  7  2  0  0  0
  3  8  1  0  0  0
  4 27  1  0  0  0
  4 41  2  0  0  0
  5  9  1  0  0  0
  6 10  1  0  0  0
  6 11  1  0  0  0
  6 28  1  0  0  0
  7 12  1  0  0  0
  7 41  1  0  0  0
  8 29  1  0  0  0
  8 30  1  0  0  0
  9 13  1  0  0  0
  9 10  1  0  0  0
  9 31  1  0  0  0
 10 14  1  0  0  0
 10 32  1  0  0  0
 11 33  1  0  0  0
 12 15  1  0  0  0
 12 16  2  0  0  0
 13 17  1  0  0  0
 13 34  1  0  0  0
 13 35  1  0  0  0
 14 36  1  0  0  0
 15 18  1  0  0  0
 15 37  1  0  0  0
 17 19  1  0  0  0
 18 20  1  0  0  0
 18 21  1  0  0  0
 18 38  1  0  0  0
 19 22  2  0  0  0
 19 43  1  0  0  0
 19 44  1  0  0  0
 20 23  1  0  0  0
 20 39  1  0  0  0
 20 40  1  0  0  0
 21 24  2  0  0  0
 21 45  1  0  0  0
 23 25  2  0  0  0
 23 46  1  0  0  0
 41 42  1  0  0  0
M  CHG  5  41   1  43  -1  44  -1  45  -1  46  -1
M  END
> <i_ionizer_Ion_state_n>
31

> <i_ionizer_Tot_Q>
-3

> <s_ionizer_Ion_centers>
41_43_44_45_46

> <s_ionizer_Ion_types>
N4_OM_OM_OM_OM

> <s_ionizer_Ion_ctrs_in>
9_23_24_27_29

> <r_ionizer_Ionization_penalty>
0.411879

> <r_ionizer_Ionization_penalty_charging>
0.411879

> <r_ionizer_Ionization_penalty_neutral>
0

> <s_st_Chirality_1>
2_R_5_1_6_26

> <s_st_Chirality_2>
6_R_11_2_10_28

> <s_st_Chirality_3>
9_R_5_10_13_31

> <s_st_Chirality_4>
10_R_14_6_9_32

> <s_st_Chirality_5>
18_R_15_21_20_38

> <i_mmod_Serial_Number-OPLS-2005>
617

> <i_i_glide_lignum>
610

> <r_i_docking_score>
-3.90452

> <r_i_glide_gscore>
-3.90452

> <r_i_glide_lipo>
-0.67233

> <r_i_glide_hbond>
-1.32477

> <r_i_glide_metal>
0

> <r_i_glide_eburp>
-0.769198

> <r_i_glide_evdw>
-14.3747

> <r_i_glide_ecoul>
-6.8285

> <r_i_glide_erotb>
0.787884

> <r_i_glide_esite>
-0.0932853

> <r_i_glide_emodel>
-54.2625

> <r_i_glide_energy>
-21.2032

> <r_i_glide_einternal>
11.9603

> <i_i_glide_confnum>
128

> <i_i_glide_posenum>
741

$$$$
C00899
                    3D
 Structure written by MMmdl.
 51 51  0  0  1  0            999 V2000
    0.5302    5.2591    1.6724 C   0  0  0  0  0  0
   -0.8304    5.8175    2.1366 C   0  0  0  0  0  0
    1.2205    5.8070    0.6345 C   0  0  0  0  0  0
    1.0491    4.0878    2.3669 C   0  0  0  0  0  0
   -1.4202    6.8318    1.1253 C   0  0  0  0  0  0
   -0.6540    6.4990    3.5103 C   0  0  0  0  0  0
   -1.8601    4.6745    2.2817 C   0  0  0  0  0  0
    0.7296    7.0230   -0.1412 C   0  0  0  0  0  0
    2.5537    5.2865    0.1071 C   0  0  0  0  0  0
    2.2656    4.0487    2.9450 C   0  0  0  0  0  0
   -0.3714    7.7983    0.5832 C   0  0  0  0  0  0
    2.8477    2.9092    3.6452 C   0  0  0  0  0  0
    4.0281    3.1081    4.2709 C   0  0  0  0  0  0
    2.1634    1.5459    3.6647 C   0  0  0  0  0  0
    4.7683    2.1047    5.0233 C   0  0  0  0  0  0
    4.8256    0.7832    4.7578 C   0  0  0  0  0  0
    4.2543    0.0664    3.6237 C   0  0  0  0  0  0
    4.5936    0.4915    2.3893 C   0  0  0  0  0  0
    3.2546   -1.0652    3.8161 C   0  0  0  0  0  0
    4.1244   -0.0774    1.0624 C   0  0  0  0  0  0
    3.1617   -1.0856    1.2775 O   0  0  0  0  0  0
    0.4026    3.2262    2.4111 H   0  0  0  0  0  0
   -1.8552    6.2986    0.2782 H   0  0  0  0  0  0
   -2.2421    7.3887    1.5771 H   0  0  0  0  0  0
   -1.5889    6.9375    3.8607 H   0  0  0  0  0  0
   -0.3278    5.7896    4.2714 H   0  0  0  0  0  0
    0.0889    7.2958    3.4727 H   0  0  0  0  0  0
   -2.8445    5.0613    2.5480 H   0  0  0  0  0  0
   -1.9683    4.1162    1.3509 H   0  0  0  0  0  0
   -1.5777    3.9638    3.0590 H   0  0  0  0  0  0
    1.5639    7.6972   -0.3379 H   0  0  0  0  0  0
    0.3695    6.6799   -1.1118 H   0  0  0  0  0  0
    3.2717    6.1037    0.0364 H   0  0  0  0  0  0
    3.0128    4.5237    0.7332 H   0  0  0  0  0  0
    2.4207    4.8695   -0.8912 H   0  0  0  0  0  0
    2.8616    4.9480    2.8720 H   0  0  0  0  0  0
   -0.8319    8.5139   -0.0986 H   0  0  0  0  0  0
    0.0578    8.3824    1.3975 H   0  0  0  0  0  0
    4.4619    4.0930    4.1951 H   0  0  0  0  0  0
    2.8772    0.7477    3.4625 H   0  0  0  0  0  0
    1.7094    1.3653    4.6392 H   0  0  0  0  0  0
    1.3901    1.4494    2.9053 H   0  0  0  0  0  0
    5.3113    2.4224    5.9000 H   0  0  0  0  0  0
    5.3930    0.1895    5.4606 H   0  0  0  0  0  0
    5.2843    1.3182    2.2980 H   0  0  0  0  0  0
    2.3689   -0.9070    3.2008 H   0  0  0  0  0  0
    3.6995   -2.0229    3.5447 H   0  0  0  0  0  0
    2.9070   -1.1210    4.8475 H   0  0  0  0  0  0
    3.6680    0.7243    0.4816 H   0  0  0  0  0  0
    4.9410   -0.4799    0.4649 H   0  0  0  0  0  0
    3.5458   -1.7597    1.8173 H   0  0  0  0  0  0
  1  2  1  0  0  0
  1  3  2  0  0  0
  1  4  1  0  0  0
  2  5  1  0  0  0
  2  6  1  0  0  0
  2  7  1  0  0  0
  3  8  1  0  0  0
  3  9  1  0  0  0
  4 10  2  0  0  0
  4 22  1  0  0  0
  5 11  1  0  0  0
  5 23  1  0  0  0
  5 24  1  0  0  0
  6 25  1  0  0  0
  6 26  1  0  0  0
  6 27  1  0  0  0
  7 28  1  0  0  0
  7 29  1  0  0  0
  7 30  1  0  0  0
  8 11  1  0  0  0
  8 31  1  0  0  0
  8 32  1  0  0  0
  9 33  1  0  0  0
  9 34  1  0  0  0
  9 35  1  0  0  0
 10 12  1  0  0  0
 10 36  1  0  0  0
 11 37  1  0  0  0
 11 38  1  0  0  0
 12 13  2  0  0  0
 12 14  1  0  0  0
 13 15  1  0  0  0
 13 39  1  0  0  0
 14 40  1  0  0  0
 14 41  1  0  0  0
 14 42  1  0  0  0
 15 16  2  0  0  0
 15 43  1  0  0  0
 16 17  1  0  0  0
 16 44  1  0  0  0
 17 18  2  0  0  0
 17 19  1  0  0  0
 18 20  1  0  0  0
 18 45  1  0  0  0
 19 46  1  0  0  0
 19 47  1  0  0  0
 19 48  1  0  0  0
 20 21  1  0  0  0
 20 49  1  0  0  0
 20 50  1  0  0  0
 21 51  1  0  0  0
M  END
> <i_ionizer_Ion_state_n>
0

> <i_ionizer_Tot_Q>
0

> <s_ionizer_Ion_centers>


> <s_ionizer_Ion_types>


> <s_ionizer_Ion_ctrs_in>


> <r_ionizer_Ionization_penalty>
0

> <r_ionizer_Ionization_penalty_charging>
0

> <r_ionizer_Ionization_penalty_neutral>
0

> <s_st_EZ_1>
2_1_3_8_Z

> <s_st_EZ_2>
1_4_10_12_E

> <s_st_EZ_3>
13_15_16_17_Z

> <i_mmod_Serial_Number-OPLS-2005>
354

> <i_i_glide_lignum>
351

> <r_i_docking_score>
-3.90348

> <r_i_glide_gscore>
-3.90348

> <r_i_glide_lipo>
-1.79441

> <r_i_glide_hbond>
0

> <r_i_glide_metal>
0

> <r_i_glide_eburp>
-1.61772

> <r_i_glide_evdw>
-19.4711

> <r_i_glide_ecoul>
-0.155625

> <r_i_glide_erotb>
1.26461

> <r_i_glide_esite>
-0.182702

> <r_i_glide_emodel>
-22.2044

> <r_i_glide_energy>
-19.6267

> <r_i_glide_einternal>
7.638

> <i_i_glide_confnum>
84

> <i_i_glide_posenum>
529

$$$$
C05140
                    3D
 Structure written by MMmdl.
 48 51  0  0  1  0            999 V2000
    1.9255    3.0757    3.1056 C   0  0  2  0  0  0
    2.0776    3.5503    1.6312 C   0  0  1  0  0  0
    1.8820    1.5396    3.1167 C   0  0  1  0  0  0
    0.6568    3.6788    3.7209 C   0  0  0  0  0  0
    2.1000    5.1061    1.4924 C   0  0  2  0  0  0
    3.2594    2.8417    0.9068 C   0  0  0  0  0  0
    3.1561    0.9165    2.5359 C   0  0  2  0  0  0
    1.6235    0.7849    4.4285 C   0  0  0  0  0  0
    0.7019    5.2063    3.6691 C   0  0  0  0  0  0
    0.9040    5.7127    2.2509 C   0  0  0  0  0  0
    2.0204    5.4592   -0.0168 C   0  0  0  0  0  0
    3.3983    5.6999    2.0765 C   0  0  0  0  0  0
    3.2384    1.3039    1.0520 C   0  0  0  0  0  0
    2.8555   -0.5460    2.8318 C   0  0  0  0  0  0
    4.4516    1.2998    3.2877 C   0  0  0  0  0  0
    2.0371   -0.6683    4.1171 C   0  0  2  0  0  0
    0.0675    6.6377    1.7348 C   0  0  0  0  0  0
    1.5951    6.9045   -0.3007 C   0  0  0  0  0  0
    3.2237   -1.4961    2.1418 O   0  0  0  0  0  0
    0.9115   -1.4937    3.8999 O   0  0  0  0  0  0
    0.2755    7.2111    0.3989 C   0  0  0  0  0  0
   -0.5488    7.9387   -0.1505 O   0  0  0  0  0  0
    2.7799    3.4132    3.6911 H   0  0  0  0  0  0
    1.1745    3.2134    1.1201 H   0  0  0  0  0  0
    1.0560    1.2635    2.4572 H   0  0  0  0  0  0
   -0.2225    3.3192    3.1852 H   0  0  0  0  0  0
    0.5493    3.3534    4.7556 H   0  0  0  0  0  0
    3.2499    3.0885   -0.1543 H   0  0  0  0  0  0
    4.2060    3.2164    1.2938 H   0  0  0  0  0  0
    2.2466    1.1887    5.2270 H   0  0  0  0  0  0
    0.5833    0.8631    4.7460 H   0  0  0  0  0  0
   -0.2163    5.6207    4.0861 H   0  0  0  0  0  0
    1.5207    5.5714    4.2893 H   0  0  0  0  0  0
    2.9780    5.2648   -0.5000 H   0  0  0  0  0  0
    1.3017    4.7975   -0.5022 H   0  0  0  0  0  0
    3.3829    6.7891    2.0327 H   0  0  0  0  0  0
    3.5377    5.4190    3.1200 H   0  0  0  0  0  0
    4.2767    5.3676    1.5240 H   0  0  0  0  0  0
    2.3833    0.8961    0.5115 H   0  0  0  0  0  0
    4.1304    0.8740    0.5956 H   0  0  0  0  0  0
    4.4296    0.9758    4.3286 H   0  0  0  0  0  0
    5.3200    0.8351    2.8198 H   0  0  0  0  0  0
    4.6224    2.3755    3.2879 H   0  0  0  0  0  0
    2.6471   -1.0844    4.9190 H   0  0  0  0  0  0
   -0.7610    7.0150    2.3165 H   0  0  0  0  0  0
    2.3530    7.6032    0.0538 H   0  0  0  0  0  0
    1.4859    7.0630   -1.3738 H   0  0  0  0  0  0
    0.5097   -1.6731    4.7368 H   0  0  0  0  0  0
  1  2  1  0  0  0
  1  3  1  0  0  0
  1  4  1  0  0  0
  1 23  1  0  0  0
  2  5  1  0  0  0
  2  6  1  0  0  0
  2 24  1  0  0  0
  3  7  1  0  0  0
  3  8  1  0  0  0
  3 25  1  0  0  0
  4  9  1  0  0  0
  4 26  1  0  0  0
  4 27  1  0  0  0
  5 10  1  0  0  0
  5 11  1  0  0  0
  5 12  1  0  0  0
  6 13  1  0  0  0
  6 28  1  0  0  0
  6 29  1  0  0  0
  7 14  1  0  0  0
  7 15  1  0  0  0
  7 13  1  0  0  0
  8 16  1  0  0  0
  8 30  1  0  0  0
  8 31  1  0  0  0
  9 10  1  0  0  0
  9 32  1  0  0  0
  9 33  1  0  0  0
 10 17  2  0  0  0
 11 18  1  0  0  0
 11 34  1  0  0  0
 11 35  1  0  0  0
 12 36  1  0  0  0
 12 37  1  0  0  0
 12 38  1  0  0  0
 13 39  1  0  0  0
 13 40  1  0  0  0
 14 19  2  0  0  0
 14 16  1  0  0  0
 15 41  1  0  0  0
 15 42  1  0  0  0
 15 43  1  0  0  0
 16 20  1  0  0  0
 16 44  1  0  0  0
 17 21  1  0  0  0
 17 45  1  0  0  0
 18 21  1  0  0  0
 18 46  1  0  0  0
 18 47  1  0  0  0
 20 48  1  0  0  0
 21 22  2  0  0  0
M  END
> <i_ionizer_Ion_state_n>
0

> <i_ionizer_Tot_Q>
0

> <s_ionizer_Ion_centers>


> <s_ionizer_Ion_types>


> <s_ionizer_Ion_ctrs_in>


> <r_ionizer_Ionization_penalty>
0

> <r_ionizer_Ionization_penalty_charging>
0

> <r_ionizer_Ionization_penalty_neutral>
0

> <s_st_Chirality_1>
1_R_3_2_4_23

> <s_st_Chirality_2>
2_S_5_1_6_24

> <s_st_Chirality_3>
3_S_7_1_8_25

> <s_st_Chirality_4>
5_R_10_2_11_12

> <s_st_Chirality_5>
7_S_14_3_13_15

> <s_st_Chirality_6>
16_R_20_14_8_44

> <s_st_EZ_1>
5_10_17_21_Z

> <i_mmod_Serial_Number-OPLS-2005>
637

> <i_i_glide_lignum>
630

> <r_i_docking_score>
-3.90172

> <r_i_glide_gscore>
-3.90172

> <r_i_glide_lipo>
-1.58

> <r_i_glide_hbond>
0

> <r_i_glide_metal>
0

> <r_i_glide_eburp>
-1.49684

> <r_i_glide_evdw>
-3.18652

> <r_i_glide_ecoul>
-0.0858781

> <r_i_glide_erotb>
0

> <r_i_glide_esite>
-0.561374

> <r_i_glide_emodel>
-2.21937

> <r_i_glide_energy>
-3.2724

> <r_i_glide_einternal>
0.536951

> <i_i_glide_confnum>
1

> <i_i_glide_posenum>
325

$$$$
C00417
                    3D
 Structure written by MMmdl.
 15 14  0  0  1  0            999 V2000
    1.9279    0.8597    2.8774 C   0  0  0  0  0  0
    1.7111    1.9703    3.8984 C   0  0  0  0  0  0
    2.4756    1.1047    1.6684 C   0  0  0  0  0  0
    1.4874   -0.5588    3.3544 C   0  0  0  0  0  0
    0.5015    2.8580    3.5968 C   0  0  0  0  0  0
    2.7643    0.0647    0.5517 C   0  0  0  0  0  0
    0.9289   -0.6107    4.4727 O   0  0  0  0  0  0
    0.3595    3.8910    4.2885 O   0  0  0  0  0  0
    2.1044    0.1963   -0.5025 O   0  0  0  0  0  0
    1.6135    1.5498    4.9005 H   0  0  0  0  0  0
    2.6014    2.5995    3.9250 H   0  0  0  0  0  0
    2.7467    2.1244    1.4395 H   0  0  0  0  0  0
    1.6885   -1.4987    2.5543 O   0  5  0  0  0  0
   -0.2816    2.4729    2.7005 O   0  5  0  0  0  0
    3.5833   -0.8357    0.8379 O   0  5  0  0  0  0
  1  2  1  0  0  0
  1  3  2  0  0  0
  1  4  1  0  0  0
  2  5  1  0  0  0
  2 10  1  0  0  0
  2 11  1  0  0  0
  3  6  1  0  0  0
  3 12  1  0  0  0
  4  7  2  0  0  0
  4 13  1  0  0  0
  5  8  2  0  0  0
  5 14  1  0  0  0
  6  9  2  0  0  0
  6 15  1  0  0  0
M  CHG  3  13  -1  14  -1  15  -1
M  END
> <i_ionizer_Ion_state_n>
7

> <i_ionizer_Tot_Q>
-3

> <s_ionizer_Ion_centers>
13_14_15

> <s_ionizer_Ion_types>
OM_OM_OM

> <s_ionizer_Ion_ctrs_in>
7_9_11

> <r_ionizer_Ionization_penalty>
0.00177657

> <r_ionizer_Ionization_penalty_charging>
0.00177657

> <r_ionizer_Ionization_penalty_neutral>
0

> <s_st_EZ_1>
4_1_3_6_Z

> <i_mmod_Serial_Number-OPLS-2005>
230

> <i_i_glide_lignum>
228

> <r_i_docking_score>
-3.8993

> <r_i_glide_gscore>
-3.8993

> <r_i_glide_lipo>
-0.21104

> <r_i_glide_hbond>
-1.0322

> <r_i_glide_metal>
0

> <r_i_glide_eburp>
-2.49176

> <r_i_glide_evdw>
-9.71917

> <r_i_glide_ecoul>
-5.14886

> <r_i_glide_erotb>
1.81114

> <r_i_glide_esite>
-0.683023

> <r_i_glide_emodel>
-34.2398

> <r_i_glide_energy>
-14.868

> <r_i_glide_einternal>
9.41934

> <i_i_glide_confnum>
3

> <i_i_glide_posenum>
945

$$$$
C01259
                    3D
 Structure written by MMmdl.
 35 34  0  0  1  0            999 V2000
    4.1595    1.6191    3.5037 C   0  0  2  0  0  0
    4.3797    1.5060    1.9763 C   0  0  0  0  0  0
    2.9965    0.7362    4.0370 C   0  0  1  0  0  0
    3.8581    2.9751    3.7846 O   0  0  0  0  0  0
    5.0518    0.1909    1.5441 C   0  0  0  0  0  0
    1.6787    0.9876    3.2881 C   0  0  0  0  0  0
    5.5537    0.2551    0.0829 C   0  0  0  0  0  0
    1.4647    0.3233    2.2490 O   0  0  0  0  0  0
    6.2908   -0.9504   -0.4119 N   0  3  0  0  0  0
    5.3178   -2.0670   -0.5417 C   0  0  0  0  0  0
    6.8965   -0.6990   -1.7464 C   0  0  0  0  0  0
    7.3513   -1.3614    0.5458 C   0  0  0  0  0  0
    5.0883    1.3660    4.0179 H   0  0  0  0  0  0
    3.4229    1.5721    1.4582 H   0  0  0  0  0  0
    4.9687    2.3554    1.6269 H   0  0  0  0  0  0
    2.8516    0.9397    5.1000 H   0  0  0  0  0  0
    3.0986    3.2347    3.2854 H   0  0  0  0  0  0
    5.8794   -0.0195    2.2202 H   0  0  0  0  0  0
    4.3314   -0.6172    1.6664 H   0  0  0  0  0  0
    2.5309   -1.2346    4.2693 H   0  0  0  0  0  0
    3.4085   -0.9130    2.9129 H   0  0  0  0  0  0
    4.6978    0.4358   -0.5701 H   0  0  0  0  0  0
    6.1979    1.1299   -0.0236 H   0  0  0  0  0  0
    5.8004   -2.9775   -0.9007 H   0  0  0  0  0  0
    4.8516   -2.2999    0.4171 H   0  0  0  0  0  0
    4.5215   -1.8191   -1.2454 H   0  0  0  0  0  0
    7.3308   -1.6119   -2.1568 H   0  0  0  0  0  0
    6.1509   -0.3398   -2.4574 H   0  0  0  0  0  0
    7.6988    0.0374   -1.6999 H   0  0  0  0  0  0
    7.8074   -2.3051    0.2426 H   0  0  0  0  0  0
    8.1556   -0.6281    0.6055 H   0  0  0  0  0  0
    6.9457   -1.4985    1.5494 H   0  0  0  0  0  0
    3.2997   -0.6982    3.8938 N   0  3  0  0  0  0
    4.1482   -0.9184    4.3942 H   0  0  0  0  0  0
    0.8944    1.8256    3.7830 O   0  5  0  0  0  0
  1  2  1  0  0  0
  1  3  1  0  0  0
  1  4  1  0  0  0
  1 13  1  0  0  0
  2  5  1  0  0  0
  2 14  1  0  0  0
  2 15  1  0  0  0
  3  6  1  0  0  0
  3 16  1  0  0  0
  3 33  1  0  0  0
  4 17  1  0  0  0
  5  7  1  0  0  0
  5 18  1  0  0  0
  5 19  1  0  0  0
  6  8  2  0  0  0
  6 35  1  0  0  0
  7  9  1  0  0  0
  7 22  1  0  0  0
  7 23  1  0  0  0
  9 10  1  0  0  0
  9 11  1  0  0  0
  9 12  1  0  0  0
 10 24  1  0  0  0
 10 25  1  0  0  0
 10 26  1  0  0  0
 11 27  1  0  0  0
 11 28  1  0  0  0
 11 29  1  0  0  0
 12 30  1  0  0  0
 12 31  1  0  0  0
 12 32  1  0  0  0
 20 33  1  0  0  0
 21 33  1  0  0  0
 33 34  1  0  0  0
M  CHG  3   9   1  33   1  35  -1
M  END
> <i_ionizer_Ion_state_n>
3

> <i_ionizer_Tot_Q>
1

> <s_ionizer_Ion_centers>
33_35

> <s_ionizer_Ion_types>
N5_OM

> <s_ionizer_Ion_ctrs_in>
7_9

> <r_ionizer_Ionization_penalty>
0.000779521

> <r_ionizer_Ionization_penalty_charging>
0.000779521

> <r_ionizer_Ionization_penalty_neutral>
0

> <s_st_Chirality_1>
3_S_33_6_1_16

> <s_st_Chirality_2>
1_R_4_3_2_13

> <i_mmod_Serial_Number-OPLS-2005>
432

> <i_i_glide_lignum>
428

> <r_i_docking_score>
-3.89782

> <r_i_glide_gscore>
-3.89782

> <r_i_glide_lipo>
-0.703493

> <r_i_glide_hbond>
-0.38419

> <r_i_glide_metal>
0

> <r_i_glide_eburp>
-2.23273

> <r_i_glide_evdw>
-16.6879

> <r_i_glide_ecoul>
-5.14237

> <r_i_glide_erotb>
1.78721

> <r_i_glide_esite>
-0.515342

> <r_i_glide_emodel>
-44.1402

> <r_i_glide_energy>
-21.8303

> <r_i_glide_einternal>
1.66554

> <i_i_glide_confnum>
9

> <i_i_glide_posenum>
233

$$$$
C00132
                    3D
 Structure written by MMmdl.
  6  5  0  0  1  0            999 V2000
    1.5830   -0.7015    4.5075 C   0  0  0  0  0  0
    2.9025   -0.2419    4.6997 O   0  0  0  0  0  0
    0.9466    0.1118    4.1586 H   0  0  0  0  0  0
    1.5639   -1.5002    3.7659 H   0  0  0  0  0  0
    1.1751   -1.0851    5.4428 H   0  0  0  0  0  0
    3.4324   -0.9641    5.0013 H   0  0  0  0  0  0
  1  2  1  0  0  0
  1  3  1  0  0  0
  1  4  1  0  0  0
  1  5  1  0  0  0
  2  6  1  0  0  0
M  END
> <i_ionizer_Ion_state_n>
0

> <i_ionizer_Tot_Q>
0

> <s_ionizer_Ion_centers>


> <s_ionizer_Ion_types>


> <s_ionizer_Ion_ctrs_in>


> <r_ionizer_Ionization_penalty>
0

> <r_ionizer_Ionization_penalty_charging>
0

> <r_ionizer_Ionization_penalty_neutral>
0

> <i_mmod_Serial_Number-OPLS-2005>
96

> <i_i_glide_lignum>
94

> <r_i_docking_score>
-3.89483

> <r_i_glide_gscore>
-3.89483

> <r_i_glide_lipo>
-0.100598

> <r_i_glide_hbond>
-0.45

> <r_i_glide_metal>
0

> <r_i_glide_eburp>
-2.5

> <r_i_glide_evdw>
-5.32417

> <r_i_glide_ecoul>
-2.82241

> <r_i_glide_erotb>
0

> <r_i_glide_esite>
-0.136056

> <r_i_glide_emodel>
-9.31811

> <r_i_glide_energy>
-8.14658

> <r_i_glide_einternal>
0

> <i_i_glide_confnum>
1

> <i_i_glide_posenum>
857

$$$$
C06548
                    3D
 Structure written by MMmdl.
  7  7  0  0  1  0            999 V2000
    1.3024   -0.6939    4.0254 C   0  0  0  0  0  0
    2.6257   -0.6999    3.3097 C   0  0  0  0  0  0
    1.4143   -1.0995    2.6544 O   0  0  0  0  0  0
    1.0731   -1.5001    4.7192 H   0  0  0  0  0  0
    0.7880    0.2527    4.1775 H   0  0  0  0  0  0
    3.0412    0.2425    2.9589 H   0  0  0  0  0  0
    3.3262   -1.5103    3.5006 H   0  0  0  0  0  0
  1  2  1  0  0  0
  1  3  1  0  0  0
  1  4  1  0  0  0
  1  5  1  0  0  0
  2  3  1  0  0  0
  2  6  1  0  0  0
  2  7  1  0  0  0
M  END
> <i_ionizer_Ion_state_n>
0

> <i_ionizer_Tot_Q>
0

> <s_ionizer_Ion_centers>


> <s_ionizer_Ion_types>


> <s_ionizer_Ion_ctrs_in>


> <r_ionizer_Ionization_penalty>
0

> <r_ionizer_Ionization_penalty_charging>
0

> <r_ionizer_Ionization_penalty_neutral>
0

> <i_mmod_Serial_Number-OPLS-2005>
874

> <i_i_glide_lignum>
862

> <r_i_docking_score>
-3.89419

> <r_i_glide_gscore>
-3.89419

> <r_i_glide_lipo>
-0.245769

> <r_i_glide_hbond>
-0.148123

> <r_i_glide_metal>
0

> <r_i_glide_eburp>
-2.5

> <r_i_glide_evdw>
-7.63848

> <r_i_glide_ecoul>
-2.22731

> <r_i_glide_erotb>
0

> <r_i_glide_esite>
-0.166488

> <r_i_glide_emodel>
-10.8203

> <r_i_glide_energy>
-9.86579

> <r_i_glide_einternal>
0

> <i_i_glide_confnum>
1

> <i_i_glide_posenum>
243

$$$$
C00134
                    3D
 Structure written by MMmdl.
 20 19  0  0  1  0            999 V2000
    5.8411    0.4954    4.7230 C   0  0  0  0  0  0
    4.6790    1.3685    4.2236 C   0  0  0  0  0  0
    5.8826    0.3871    6.2547 C   0  0  0  0  0  0
    3.5159    0.5380    3.6606 C   0  0  0  0  0  0
    5.7548   -0.5023    4.2898 H   0  0  0  0  0  0
    6.7840    0.9086    4.3617 H   0  0  0  0  0  0
    4.3180    1.9918    5.0431 H   0  0  0  0  0  0
    5.0448    2.0507    3.4547 H   0  0  0  0  0  0
    6.1050    1.3585    6.6980 H   0  0  0  0  0  0
    4.9116    0.0729    6.6395 H   0  0  0  0  0  0
    2.7517    1.1921    3.2390 H   0  0  0  0  0  0
    3.8661   -0.1082    2.8548 H   0  0  0  0  0  0
    6.9035   -0.6268    7.7091 H   0  0  0  0  0  0
    6.6918   -1.4927    6.3233 H   0  0  0  0  0  0
    2.1381   -0.8320    4.3010 H   0  0  0  0  0  0
    3.5856   -0.9349    5.0814 H   0  0  0  0  0  0
    6.9017   -0.5792    6.6998 N   0  3  0  0  0  0
    7.8130   -0.2849    6.3783 H   0  0  0  0  0  0
    2.8974   -0.3000    4.7025 N   0  3  0  0  0  0
    2.5386    0.2868    5.4424 H   0  0  0  0  0  0
  1  2  1  0  0  0
  1  3  1  0  0  0
  1  5  1  0  0  0
  1  6  1  0  0  0
  2  4  1  0  0  0
  2  7  1  0  0  0
  2  8  1  0  0  0
  3  9  1  0  0  0
  3 10  1  0  0  0
  3 17  1  0  0  0
  4 11  1  0  0  0
  4 12  1  0  0  0
  4 19  1  0  0  0
 13 17  1  0  0  0
 14 17  1  0  0  0
 15 19  1  0  0  0
 16 19  1  0  0  0
 17 18  1  0  0  0
 19 20  1  0  0  0
M  CHG  2  17   1  19   1
M  END
> <i_ionizer_Ion_state_n>
3

> <i_ionizer_Tot_Q>
2

> <s_ionizer_Ion_centers>
17_19

> <s_ionizer_Ion_types>
N5_N5

> <s_ionizer_Ion_ctrs_in>
5_6

> <r_ionizer_Ionization_penalty>
0.000374662

> <r_ionizer_Ionization_penalty_charging>
0.000374662

> <r_ionizer_Ionization_penalty_neutral>
0

> <i_mmod_Serial_Number-OPLS-2005>
97

> <i_i_glide_lignum>
95

> <r_i_docking_score>
-3.87604

> <r_i_glide_gscore>
-3.87604

> <r_i_glide_lipo>
-0.420849

> <r_i_glide_hbond>
-1.25017

> <r_i_glide_metal>
0

> <r_i_glide_eburp>
-2.5

> <r_i_glide_evdw>
-7.46963

> <r_i_glide_ecoul>
-10.5248

> <r_i_glide_erotb>
1.63289

> <r_i_glide_esite>
0.312137

> <r_i_glide_emodel>
-33.3214

> <r_i_glide_energy>
-17.9944

> <r_i_glide_einternal>
5.20439

> <i_i_glide_confnum>
1

> <i_i_glide_posenum>
983

$$$$
C00010
                    3D
 Structure written by MMmdl.
 80 82  0  0  1  0            999 V2000
   -9.2658   13.3314   -0.2301 N   0  0  0  0  0  0
   -8.0108   13.8827   -0.8331 C   0  0  2  0  0  0
   -9.3372   12.5983    0.9338 C   0  0  0  0  0  0
  -10.5733   13.4474   -0.6592 C   0  0  0  0  0  0
   -7.1040   14.1319    0.2009 O   0  0  0  0  0  0
   -8.3080   15.2195   -1.5219 C   0  0  1  0  0  0
  -10.7132   12.2984    1.1211 C   0  0  0  0  0  0
   -8.3154   12.2191    1.7561 N   0  0  0  0  0  0
  -11.4621   12.8516    0.0921 N   0  0  0  0  0  0
   -6.8651   15.5276    0.3860 C   0  0  1  0  0  0
   -8.0045   16.1990   -0.3978 C   0  0  1  0  0  0
   -7.4987   15.3697   -2.6684 O   0  0  0  0  0  0
  -11.0248   11.5316    2.2716 C   0  0  0  0  0  0
   -8.7605   11.5054    2.7942 C   0  0  0  0  0  0
   -6.8705   15.8828    1.8829 C   0  0  0  0  0  0
   -7.9112   17.5615   -0.8191 O   0  0  0  0  0  0
  -10.0159   11.1507    3.0895 N   0  0  0  0  0  0
  -12.2736   11.1659    2.5892 N   0  0  0  0  0  0
   -6.1032   14.9651    2.6435 O   0  0  0  0  0  0
   -9.2634   18.3389   -1.7184 P   0  0  0  0  0  0
   -6.4755   14.5725    4.2632 P   0  0  0  0  0  0
   -8.7190   19.7514   -2.0261 O   0  0  0  0  0  0
   -6.1740   12.9009    4.3794 O   0  0  0  0  0  0
   -5.5376   15.2765    5.1662 O   0  0  0  0  0  0
   -6.4357   11.6800    5.5356 P   0  0  0  0  0  0
   -4.9377   10.8713    5.6007 O   0  0  0  0  0  0
   -6.6707   12.3083    6.8551 O   0  0  0  0  0  0
   -4.1652   10.6298    4.4379 C   0  0  0  0  0  0
   -3.1804    9.4473    4.6311 C   0  0  0  0  0  0
   -2.3484    9.2725    3.3148 C   0  0  2  0  0  0
   -2.2833    9.7431    5.8558 C   0  0  0  0  0  0
   -3.9917    8.1611    4.9139 C   0  0  0  0  0  0
   -1.5029    7.9872    3.2339 C   0  0  0  0  0  0
   -1.4986   10.3858    3.1019 O   0  0  0  0  0  0
   -1.0433    7.6537    2.0188 N   0  0  0  0  0  0
   -1.2504    7.3310    4.2451 O   0  0  0  0  0  0
   -0.1339    6.5464    1.7578 C   0  0  0  0  0  0
   -0.7827    5.2097    2.1577 C   0  0  0  0  0  0
    0.1123    4.3459    3.0522 C   0  0  0  0  0  0
    0.0446    3.0219    2.8527 N   0  0  0  0  0  0
    0.8401    4.8599    3.9018 O   0  0  0  0  0  0
    0.7899    2.0365    3.6241 C   0  0  0  0  0  0
    0.9547    0.7372    2.8258 C   0  0  0  0  0  0
    1.6870   -0.5302    3.8937 S   0  0  0  0  0  0
   -7.6648   13.0930   -1.5012 H   0  0  0  0  0  0
  -10.8587   13.9902   -1.5483 H   0  0  0  0  0  0
   -9.3499   15.2742   -1.8393 H   0  0  0  0  0  0
   -5.8921   15.7435   -0.0500 H   0  0  0  0  0  0
   -8.8782   16.1826    0.2556 H   0  0  0  0  0  0
   -6.5838   15.2855   -2.4015 H   0  0  0  0  0  0
   -8.0038   11.1692    3.4876 H   0  0  0  0  0  0
   -6.4364   16.8717    2.0285 H   0  0  0  0  0  0
   -7.8898   15.9361    2.2617 H   0  0  0  0  0  0
  -12.4426   10.6189    3.4202 H   0  0  0  0  0  0
  -13.0395   11.4408    1.9908 H   0  0  0  0  0  0
   -4.8270   10.4422    3.5912 H   0  0  0  0  0  0
   -3.6279   11.5500    4.2060 H   0  0  0  0  0  0
   -3.0438    9.2632    2.4736 H   0  0  0  0  0  0
   -1.6090    8.9175    6.0807 H   0  0  0  0  0  0
   -1.6762   10.6359    5.7037 H   0  0  0  0  0  0
   -2.8831    9.9126    6.7507 H   0  0  0  0  0  0
   -3.3489    7.3011    5.1018 H   0  0  0  0  0  0
   -4.6226    8.2724    5.7960 H   0  0  0  0  0  0
   -4.6429    7.9108    4.0760 H   0  0  0  0  0  0
   -1.6556   10.7232    2.2338 H   0  0  0  0  0  0
   -1.3535    8.1957    1.2255 H   0  0  0  0  0  0
    0.1270    6.5398    0.6979 H   0  0  0  0  0  0
    0.7899    6.7032    2.3180 H   0  0  0  0  0  0
   -1.7197    5.3936    2.6848 H   0  0  0  0  0  0
   -1.0324    4.6434    1.2590 H   0  0  0  0  0  0
   -0.5610    2.6773    2.1221 H   0  0  0  0  0  0
    1.7681    2.4458    3.8826 H   0  0  0  0  0  0
    0.2639    1.8391    4.5599 H   0  0  0  0  0  0
   -0.0087    0.3809    2.4596 H   0  0  0  0  0  0
    1.6013    0.8914    1.9613 H   0  0  0  0  0  0
    2.8240    0.1286    4.1356 H   0  0  0  0  0  0
  -10.4164   18.2629   -0.6951 O   0  5  0  0  0  0
   -9.3922   17.4007   -2.9382 O   0  5  0  0  0  0
   -7.9318   14.7727    4.4439 O   0  5  0  0  0  0
   -7.4455   10.7448    4.9872 O   0  5  0  0  0  0
  1  2  1  0  0  0
  1  3  1  0  0  0
  1  4  1  0  0  0
  2  5  1  0  0  0
  2  6  1  0  0  0
  2 45  1  0  0  0
  3  7  2  0  0  0
  3  8  1  0  0  0
  4  9  2  0  0  0
  4 46  1  0  0  0
  5 10  1  0  0  0
  6 11  1  0  0  0
  6 12  1  0  0  0
  6 47  1  0  0  0
  7 13  1  0  0  0
  7  9  1  0  0  0
  8 14  2  0  0  0
 10 15  1  0  0  0
 10 11  1  0  0  0
 10 48  1  0  0  0
 11 16  1  0  0  0
 11 49  1  0  0  0
 12 50  1  0  0  0
 13 17  2  0  0  0
 13 18  1  0  0  0
 14 17  1  0  0  0
 14 51  1  0  0  0
 15 19  1  0  0  0
 15 52  1  0  0  0
 15 53  1  0  0  0
 16 20  1  0  0  0
 18 54  1  0  0  0
 18 55  1  0  0  0
 19 21  1  0  0  0
 20 22  2  0  0  0
 20 77  1  0  0  0
 20 78  1  0  0  0
 21 23  1  0  0  0
 21 24  2  0  0  0
 21 79  1  0  0  0
 23 25  1  0  0  0
 25 26  1  0  0  0
 25 27  2  0  0  0
 25 80  1  0  0  0
 26 28  1  0  0  0
 28 29  1  0  0  0
 28 56  1  0  0  0
 28 57  1  0  0  0
 29 30  1  0  0  0
 29 31  1  0  0  0
 29 32  1  0  0  0
 30 33  1  0  0  0
 30 34  1  0  0  0
 30 58  1  0  0  0
 31 59  1  0  0  0
 31 60  1  0  0  0
 31 61  1  0  0  0
 32 62  1  0  0  0
 32 63  1  0  0  0
 32 64  1  0  0  0
 33 35  1  0  0  0
 33 36  2  0  0  0
 34 65  1  0  0  0
 35 37  1  0  0  0
 35 66  1  0  0  0
 37 38  1  0  0  0
 37 67  1  0  0  0
 37 68  1  0  0  0
 38 39  1  0  0  0
 38 69  1  0  0  0
 38 70  1  0  0  0
 39 40  1  0  0  0
 39 41  2  0  0  0
 40 42  1  0  0  0
 40 71  1  0  0  0
 42 43  1  0  0  0
 42 72  1  0  0  0
 42 73  1  0  0  0
 43 44  1  0  0  0
 43 74  1  0  0  0
 43 75  1  0  0  0
 44 76  1  0  0  0
M  CHG  4  77  -1  78  -1  79  -1  80  -1
M  END
> <i_ionizer_Ion_state_n>
30

> <i_ionizer_Tot_Q>
-4

> <s_ionizer_Ion_centers>
77_78_79_80

> <s_ionizer_Ion_types>
OM_OM_OM_OM

> <s_ionizer_Ion_ctrs_in>
22_23_26_30

> <r_ionizer_Ionization_penalty>
0.00191922

> <r_ionizer_Ionization_penalty_charging>
2.98356e-05

> <r_ionizer_Ionization_penalty_neutral>
0.00188938

> <s_st_Chirality_1>
2_R_5_1_6_45

> <s_st_Chirality_2>
6_R_12_2_11_47

> <s_st_Chirality_3>
10_R_5_11_15_48

> <s_st_Chirality_4>
11_R_16_6_10_49

> <s_st_Chirality_5>
30_R_34_33_29_58

> <i_mmod_Serial_Number-OPLS-2005>
9

> <i_i_glide_lignum>
9

> <r_i_docking_score>
-3.86835

> <r_i_glide_gscore>
-3.86835

> <r_i_glide_lipo>
-0.78698

> <r_i_glide_hbond>
-0.977985

> <r_i_glide_metal>
0

> <r_i_glide_eburp>
-1.86483e-17

> <r_i_glide_evdw>
-40.2601

> <r_i_glide_ecoul>
-2.00609

> <r_i_glide_erotb>
0.583092

> <r_i_glide_esite>
0.734934

> <r_i_glide_emodel>
-57.6272

> <r_i_glide_energy>
-42.2662

> <r_i_glide_einternal>
16.7475

> <i_i_glide_confnum>
317

> <i_i_glide_posenum>
949

$$$$
C00577
                    3D
 Structure written by MMmdl.
 12 11  0  0  1  0            999 V2000
    2.8105   -0.0759    4.3198 C   0  0  2  0  0  0
    2.7680   -0.9666    3.0635 C   0  0  0  0  0  0
    2.1745    1.2968    4.0847 C   0  0  0  0  0  0
    4.1610    0.1006    4.6984 O   0  0  0  0  0  0
    1.4363   -1.2840    2.7099 O   0  0  0  0  0  0
    0.9761    1.4826    4.2925 O   0  0  0  0  0  0
    2.2907   -0.5673    5.1431 H   0  0  0  0  0  0
    3.2612   -0.4821    2.2194 H   0  0  0  0  0  0
    3.2992   -1.9014    3.2472 H   0  0  0  0  0  0
    2.8451    2.0781    3.7261 H   0  0  0  0  0  0
    4.4675   -0.7078    5.0814 H   0  0  0  0  0  0
    0.9643   -1.5210    3.4939 H   0  0  0  0  0  0
  1  2  1  0  0  0
  1  3  1  0  0  0
  1  4  1  0  0  0
  1  7  1  0  0  0
  2  5  1  0  0  0
  2  8  1  0  0  0
  2  9  1  0  0  0
  3  6  2  0  0  0
  3 10  1  0  0  0
  4 11  1  0  0  0
  5 12  1  0  0  0
M  END
> <i_ionizer_Ion_state_n>
0

> <i_ionizer_Tot_Q>
0

> <s_ionizer_Ion_centers>


> <s_ionizer_Ion_types>


> <s_ionizer_Ion_ctrs_in>


> <r_ionizer_Ionization_penalty>
0

> <r_ionizer_Ionization_penalty_charging>
0

> <r_ionizer_Ionization_penalty_neutral>
0

> <s_st_Chirality_1>
1_R_4_3_2_7

> <i_mmod_Serial_Number-OPLS-2005>
283

> <i_i_glide_lignum>
281

> <r_i_docking_score>
-3.85803

> <r_i_glide_gscore>
-3.85803

> <r_i_glide_lipo>
-0.207933

> <r_i_glide_hbond>
-0.759463

> <r_i_glide_metal>
0

> <r_i_glide_eburp>
-2.5

> <r_i_glide_evdw>
-9.08429

> <r_i_glide_ecoul>
-10.153

> <r_i_glide_erotb>
1.6353

> <r_i_glide_esite>
-0.283887

> <r_i_glide_emodel>
-23.2733

> <r_i_glide_energy>
-19.2373

> <r_i_glide_einternal>
1.43378

> <i_i_glide_confnum>
3

> <i_i_glide_posenum>
245

$$$$
C01419
                    3D
 Structure written by MMmdl.
 21 20  0  0  1  0            999 V2000
    3.3262    2.0904    3.5107 C   0  0  0  0  0  0
    2.1905    2.3293    2.8384 N   0  0  0  0  0  0
    3.6573    0.6192    3.7847 C   0  0  2  0  0  0
    4.0785    2.9781    3.9138 O   0  0  0  0  0  0
    1.6427    3.6443    2.5264 C   0  0  0  0  0  0
    2.4252   -0.1198    4.3431 C   0  0  0  0  0  0
    0.2601    3.7828    3.1588 C   0  0  0  0  0  0
    1.1746   -0.3062    3.0418 S   0  0  0  0  0  0
   -0.6184    4.3560    2.4776 O   0  0  0  0  0  0
    1.6172    1.5436    2.5656 H   0  0  0  0  0  0
    3.9516    0.1646    2.8372 H   0  0  0  0  0  0
    2.2886    4.4555    2.8668 H   0  0  0  0  0  0
    1.5518    3.7437    1.4446 H   0  0  0  0  0  0
    2.6942   -1.1013    4.7362 H   0  0  0  0  0  0
    1.9718    0.4407    5.1623 H   0  0  0  0  0  0
    5.0032   -0.4756    4.8741 H   0  0  0  0  0  0
    5.6091    0.9515    4.2978 H   0  0  0  0  0  0
    1.0855    0.9934    2.7427 H   0  0  0  0  0  0
    4.8035    0.5002    4.7065 N   0  3  0  0  0  0
    4.5731    0.9583    5.5769 H   0  0  0  0  0  0
    0.1000    3.2977    4.2997 O   0  5  0  0  0  0
  1  2  1  0  0  0
  1  3  1  0  0  0
  1  4  2  0  0  0
  2  5  1  0  0  0
  2 10  1  0  0  0
  3  6  1  0  0  0
  3 11  1  0  0  0
  3 19  1  0  0  0
  5  7  1  0  0  0
  5 12  1  0  0  0
  5 13  1  0  0  0
  6  8  1  0  0  0
  6 14  1  0  0  0
  6 15  1  0  0  0
  7  9  2  0  0  0
  7 21  1  0  0  0
  8 18  1  0  0  0
 16 19  1  0  0  0
 17 19  1  0  0  0
 19 20  1  0  0  0
M  CHG  2  19   1  21  -1
M  END
> <i_ionizer_Ion_state_n>
5

> <i_ionizer_Tot_Q>
0

> <s_ionizer_Ion_centers>
19_21

> <s_ionizer_Ion_types>
N5_OM

> <s_ionizer_Ion_ctrs_in>
7_10

> <r_ionizer_Ionization_penalty>
0.00265017

> <r_ionizer_Ionization_penalty_charging>
0.000779521

> <r_ionizer_Ionization_penalty_neutral>
0.00187065

> <s_st_Chirality_1>
3_R_19_6_1_11

> <i_mmod_Serial_Number-OPLS-2005>
447

> <i_i_glide_lignum>
443

> <r_i_docking_score>
-3.8499

> <r_i_glide_gscore>
-3.8499

> <r_i_glide_lipo>
-0.248229

> <r_i_glide_hbond>
-1.2

> <r_i_glide_metal>
0

> <r_i_glide_eburp>
-2.4378

> <r_i_glide_evdw>
-18.2372

> <r_i_glide_ecoul>
-9.35151

> <r_i_glide_erotb>
2.25896

> <r_i_glide_esite>
0.171288

> <r_i_glide_emodel>
-57.0999

> <r_i_glide_energy>
-27.5887

> <r_i_glide_einternal>
0.556324

> <i_i_glide_confnum>
3

> <i_i_glide_posenum>
896

$$$$
C00155
                    3D
 Structure written by MMmdl.
 17 16  0  0  1  0            999 V2000
    2.5982    0.6212    3.8573 C   0  0  1  0  0  0
    3.4318    0.3525    2.5846 C   0  0  0  0  0  0
    1.1740    1.0647    3.4988 C   0  0  0  0  0  0
    3.6591    1.6151    1.7391 C   0  0  0  0  0  0
    0.5295    0.3533    2.6954 O   0  0  0  0  0  0
    4.7590    1.2168    0.3558 S   0  0  0  0  0  0
    3.0778    1.4071    4.4439 H   0  0  0  0  0  0
    4.3916   -0.0932    2.8523 H   0  0  0  0  0  0
    2.9204   -0.3858    1.9638 H   0  0  0  0  0  0
    1.9673   -0.3631    5.5277 H   0  0  0  0  0  0
    2.0259   -1.3057    4.1788 H   0  0  0  0  0  0
    2.7153    1.9939    1.3458 H   0  0  0  0  0  0
    4.1121    2.4091    2.3330 H   0  0  0  0  0  0
    3.9666    0.2930   -0.1955 H   0  0  0  0  0  0
    2.5022   -0.5831    4.6998 N   0  3  0  0  0  0
    3.4254   -0.8971    4.9605 H   0  0  0  0  0  0
    0.7423    2.0972    4.0557 O   0  5  0  0  0  0
  1  2  1  0  0  0
  1  3  1  0  0  0
  1  7  1  0  0  0
  1 15  1  0  0  0
  2  4  1  0  0  0
  2  8  1  0  0  0
  2  9  1  0  0  0
  3  5  2  0  0  0
  3 17  1  0  0  0
  4  6  1  0  0  0
  4 12  1  0  0  0
  4 13  1  0  0  0
  6 14  1  0  0  0
 10 15  1  0  0  0
 11 15  1  0  0  0
 15 16  1  0  0  0
M  CHG  2  15   1  17  -1
M  END
> <i_ionizer_Ion_state_n>
3

> <i_ionizer_Tot_Q>
0

> <s_ionizer_Ion_centers>
15_17

> <s_ionizer_Ion_types>
N5_OM

> <s_ionizer_Ion_ctrs_in>
4_6

> <r_ionizer_Ionization_penalty>
0.00265017

> <r_ionizer_Ionization_penalty_charging>
0.000779521

> <r_ionizer_Ionization_penalty_neutral>
0.00187065

> <s_st_Chirality_1>
1_S_15_3_2_7

> <i_mmod_Serial_Number-OPLS-2005>
113

> <i_i_glide_lignum>
111

> <r_i_docking_score>
-3.84331

> <r_i_glide_gscore>
-3.84331

> <r_i_glide_lipo>
-0.184421

> <r_i_glide_hbond>
-0.78669

> <r_i_glide_metal>
0

> <r_i_glide_eburp>
-2.5

> <r_i_glide_evdw>
-11.6218

> <r_i_glide_ecoul>
-5.51257

> <r_i_glide_erotb>
1.76135

> <r_i_glide_esite>
-0.652547

> <r_i_glide_emodel>
-34.878

> <r_i_glide_energy>
-17.1344

> <r_i_glide_einternal>
0.088368

> <i_i_glide_confnum>
1

> <i_i_glide_posenum>
139

$$$$
C00258
                    3D
 Structure written by MMmdl.
 12 11  0  0  1  0            999 V2000
    1.8429    1.5276    4.2316 C   0  0  1  0  0  0
    0.5872    2.2032    3.6551 C   0  0  0  0  0  0
    1.8862    0.0058    3.9645 C   0  0  0  0  0  0
    2.9997    2.1240    3.6765 O   0  0  0  0  0  0
    0.1152    3.1869    4.2694 O   0  0  0  0  0  0
    0.9024   -0.6982    4.6987 O   0  0  0  0  0  0
    1.8637    1.7000    5.3087 H   0  0  0  0  0  0
    1.7421   -0.2018    2.9032 H   0  0  0  0  0  0
    2.8640   -0.3954    4.2325 H   0  0  0  0  0  0
    3.7579    1.6622    3.9978 H   0  0  0  0  0  0
    1.1707   -0.7340    5.6038 H   0  0  0  0  0  0
    0.1042    1.7053    2.6137 O   0  5  0  0  0  0
  1  2  1  0  0  0
  1  3  1  0  0  0
  1  4  1  0  0  0
  1  7  1  0  0  0
  2  5  2  0  0  0
  2 12  1  0  0  0
  3  6  1  0  0  0
  3  8  1  0  0  0
  3  9  1  0  0  0
  4 10  1  0  0  0
  6 11  1  0  0  0
M  CHG  1  12  -1
M  END
> <i_ionizer_Ion_state_n>
1

> <i_ionizer_Tot_Q>
-1

> <s_ionizer_Ion_centers>
12

> <s_ionizer_Ion_types>
OM

> <s_ionizer_Ion_ctrs_in>
5

> <r_ionizer_Ionization_penalty>
0.00059219

> <r_ionizer_Ionization_penalty_charging>
0.00059219

> <r_ionizer_Ionization_penalty_neutral>
0

> <s_st_Chirality_1>
1_R_4_2_3_7

> <i_mmod_Serial_Number-OPLS-2005>
169

> <i_i_glide_lignum>
167

> <r_i_docking_score>
-3.81571

> <r_i_glide_gscore>
-3.81571

> <r_i_glide_lipo>
-0.150357

> <r_i_glide_hbond>
-1.06166

> <r_i_glide_metal>
0

> <r_i_glide_eburp>
-2.5

> <r_i_glide_evdw>
-7.804

> <r_i_glide_ecoul>
-6.41522

> <r_i_glide_erotb>
1.29949

> <r_i_glide_esite>
-0.13734

> <r_i_glide_emodel>
-30.3977

> <r_i_glide_energy>
-14.2192

> <r_i_glide_einternal>
0.718803

> <i_i_glide_confnum>
1

> <i_i_glide_posenum>
836

$$$$
C00555
                    3D
 Structure written by MMmdl.
 16 15  0  0  1  0            999 V2000
    6.0975    0.2382    4.5398 C   0  0  0  0  0  0
    4.6427    0.4094    4.0730 C   0  0  0  0  0  0
    6.2532    0.4516    6.0522 C   0  0  0  0  0  0
    4.1307    1.8308    4.2928 C   0  0  0  0  0  0
    4.8829    2.7106    4.7053 O   0  0  0  0  0  0
    6.4502   -0.7606    4.2765 H   0  0  0  0  0  0
    6.7374    0.9434    4.0065 H   0  0  0  0  0  0
    4.5560    0.1703    3.0124 H   0  0  0  0  0  0
    3.9904   -0.2805    4.6096 H   0  0  0  0  0  0
    6.8554    1.3391    6.2500 H   0  0  0  0  0  0
    5.2789    0.6144    6.5146 H   0  0  0  0  0  0
    3.0787    2.0014    4.0630 H   0  0  0  0  0  0
    6.9822   -0.5371    7.6877 H   0  0  0  0  0  0
    6.3305   -1.5327    6.5472 H   0  0  0  0  0  0
    6.8942   -0.7078    6.6959 N   0  3  0  0  0  0
    7.8117   -0.8518    6.2987 H   0  0  0  0  0  0
  1  2  1  0  0  0
  1  3  1  0  0  0
  1  6  1  0  0  0
  1  7  1  0  0  0
  2  4  1  0  0  0
  2  8  1  0  0  0
  2  9  1  0  0  0
  3 10  1  0  0  0
  3 11  1  0  0  0
  3 15  1  0  0  0
  4  5  2  0  0  0
  4 12  1  0  0  0
 13 15  1  0  0  0
 14 15  1  0  0  0
 15 16  1  0  0  0
M  CHG  1  15   1
M  END
> <i_ionizer_Ion_state_n>
1

> <i_ionizer_Tot_Q>
1

> <s_ionizer_Ion_centers>
15

> <s_ionizer_Ion_types>
N5

> <s_ionizer_Ion_ctrs_in>
5

> <r_ionizer_Ionization_penalty>
0.000187331

> <r_ionizer_Ionization_penalty_charging>
0.000187331

> <r_ionizer_Ionization_penalty_neutral>
0

> <i_mmod_Serial_Number-OPLS-2005>
278

> <i_i_glide_lignum>
276

> <r_i_docking_score>
-3.80527

> <r_i_glide_gscore>
-3.80527

> <r_i_glide_lipo>
-0.327476

> <r_i_glide_hbond>
-0.956942

> <r_i_glide_metal>
0

> <r_i_glide_eburp>
-2.5

> <r_i_glide_evdw>
-9.52136

> <r_i_glide_ecoul>
-7.62282

> <r_i_glide_erotb>
1.68878

> <r_i_glide_esite>
-0.185641

> <r_i_glide_emodel>
-27.5853

> <r_i_glide_energy>
-17.1442

> <r_i_glide_einternal>
4.07041

> <i_i_glide_confnum>
3

> <i_i_glide_posenum>
317

$$$$
C00006
                    3D
 Structure written by MMmdl.
 73 77  0  0  1  0            999 V2000
   -4.1159    9.8109   12.2520 C   0  0  1  0  0  0
   -3.2927    8.7349   12.8846 N   0  0  0  0  0  0
   -3.5897   11.1996   12.5673 C   0  0  1  0  0  0
   -4.0134    9.6996   10.8679 O   0  0  0  0  0  0
   -3.7849    7.6139   13.5152 C   0  0  0  0  0  0
   -1.9217    8.6521   13.0286 C   0  0  0  0  0  0
   -4.1950   12.0045   11.4319 C   0  0  1  0  0  0
   -3.9392   11.6152   13.8786 O   0  0  0  0  0  0
   -4.1380   10.9933   10.2659 C   0  0  1  0  0  0
   -2.6475    6.8997   13.9808 C   0  0  0  0  0  0
   -5.0875    7.2374   13.6771 N   0  0  0  0  0  0
   -1.4876    7.5876   13.6508 N   0  0  0  0  0  0
   -5.5578   12.3090   11.6717 O   0  0  0  0  0  0
   -3.2873   13.1982   14.3951 P   0  0  0  0  0  0
   -2.9185   11.1858    9.3503 C   0  0  0  0  0  0
   -2.9190    5.6869   14.6624 C   0  0  0  0  0  0
   -5.1859    6.0790   14.3352 C   0  0  0  0  0  0
   -3.8569   14.1537   13.3220 O   0  0  0  0  0  0
   -2.8846   10.2185    8.3183 O   0  0  0  0  0  0
   -4.2081    5.3063   14.8207 N   0  0  0  0  0  0
   -1.9581    4.8982   15.1614 N   0  0  0  0  0  0
   -1.4925    9.9003    7.3842 P   0  0  0  0  0  0
   -1.9400    8.6786    6.2758 O   0  0  0  0  0  0
   -1.1332   11.1226    6.6321 O   0  0  0  0  0  0
   -2.3998    8.5572    4.6364 P   0  0  0  0  0  0
   -1.4056    7.3395    3.9668 O   0  0  0  0  0  0
   -3.7982    8.0782    4.5721 O   0  0  0  0  0  0
   -1.2547    7.1243    2.5694 C   0  0  0  0  0  0
    0.2039    6.8711    2.1548 C   0  0  1  0  0  0
    0.7046    5.8164    2.9443 O   0  0  0  0  0  0
    0.3923    6.3036    0.7456 C   0  0  2  0  0  0
    1.8384    5.2818    2.3555 C   0  0  2  0  0  0
    1.7266    5.5491    0.8421 C   0  0  2  0  0  0
    0.3747    7.3095   -0.2498 O   0  0  0  0  0  0
    1.8341    3.8239    2.6857 N   0  3  0  0  0  0
    2.8108    6.3364    0.3790 O   0  0  0  0  0  0
    3.0146    3.1654    3.1236 C   0  0  0  0  0  0
    0.6362    3.0584    2.6324 C   0  0  0  0  0  0
    3.0083    1.8053    3.4965 C   0  0  0  0  0  0
    0.6252    1.6961    2.9791 C   0  0  0  0  0  0
    1.8097    1.0691    3.3981 C   0  0  0  0  0  0
    4.2785    1.1543    3.9573 C   0  0  0  0  0  0
    4.3128   -0.1791    3.9019 N   0  0  0  0  0  0
    5.2075    1.8214    4.4086 O   0  0  0  0  0  0
   -5.1385    9.6402   12.5917 H   0  0  0  0  0  0
   -2.5072   11.1877   12.4354 H   0  0  0  0  0  0
   -1.2455    9.4100   12.6571 H   0  0  0  0  0  0
   -3.6486   12.9273   11.2331 H   0  0  0  0  0  0
   -5.0535   11.0178    9.6753 H   0  0  0  0  0  0
   -5.6048   12.8694   12.4312 H   0  0  0  0  0  0
   -2.9410   12.1731    8.8886 H   0  0  0  0  0  0
   -2.0014   11.1328    9.9366 H   0  0  0  0  0  0
   -6.1912    5.7181   14.4956 H   0  0  0  0  0  0
   -2.2058    4.0441   15.6384 H   0  0  0  0  0  0
   -0.9898    5.1648   15.0555 H   0  0  0  0  0  0
   -1.8735    6.2650    2.3109 H   0  0  0  0  0  0
   -1.6581    7.9790    2.0261 H   0  0  0  0  0  0
    0.8279    7.7536    2.3060 H   0  0  0  0  0  0
   -0.3990    5.5840    0.5306 H   0  0  0  0  0  0
    2.7379    5.6968    2.8129 H   0  0  0  0  0  0
    1.6981    4.6176    0.2749 H   0  0  0  0  0  0
    0.6115    8.1313    0.1521 H   0  0  0  0  0  0
    3.6082    5.8323    0.4361 H   0  0  0  0  0  0
    3.9179    3.7551    3.1882 H   0  0  0  0  0  0
   -0.2696    3.5604    2.3264 H   0  0  0  0  0  0
   -0.2939    1.1285    2.9398 H   0  0  0  0  0  0
    1.7830    0.0201    3.6561 H   0  0  0  0  0  0
    5.1321   -0.6729    4.2204 H   0  0  0  0  0  0
    3.5023   -0.7058    3.5695 H   0  0  0  0  0  0
   -3.8729   13.3492   15.8164 O   0  5  0  0  0  0
   -1.7667   12.9431   14.3204 O   0  5  0  0  0  0
   -0.5001    9.3067    8.3096 O   0  5  0  0  0  0
   -2.0448    9.8337    3.9742 O   0  5  0  0  0  0
  1  2  1  0  0  0
  1  3  1  0  0  0
  1  4  1  0  0  0
  1 45  1  0  0  0
  2  5  1  0  0  0
  2  6  1  0  0  0
  3  7  1  0  0  0
  3  8  1  0  0  0
  3 46  1  0  0  0
  4  9  1  0  0  0
  5 10  2  0  0  0
  5 11  1  0  0  0
  6 12  2  0  0  0
  6 47  1  0  0  0
  7 13  1  0  0  0
  7  9  1  0  0  0
  7 48  1  0  0  0
  8 14  1  0  0  0
  9 15  1  0  0  0
  9 49  1  0  0  0
 10 16  1  0  0  0
 10 12  1  0  0  0
 11 17  2  0  0  0
 13 50  1  0  0  0
 14 18  2  0  0  0
 14 70  1  0  0  0
 14 71  1  0  0  0
 15 19  1  0  0  0
 15 51  1  0  0  0
 15 52  1  0  0  0
 16 20  2  0  0  0
 16 21  1  0  0  0
 17 20  1  0  0  0
 17 53  1  0  0  0
 19 22  1  0  0  0
 21 54  1  0  0  0
 21 55  1  0  0  0
 22 23  1  0  0  0
 22 24  2  0  0  0
 22 72  1  0  0  0
 23 25  1  0  0  0
 25 26  1  0  0  0
 25 27  2  0  0  0
 25 73  1  0  0  0
 26 28  1  0  0  0
 28 29  1  0  0  0
 28 56  1  0  0  0
 28 57  1  0  0  0
 29 30  1  0  0  0
 29 31  1  0  0  0
 29 58  1  0  0  0
 30 32  1  0  0  0
 31 33  1  0  0  0
 31 34  1  0  0  0
 31 59  1  0  0  0
 32 35  1  0  0  0
 32 33  1  0  0  0
 32 60  1  0  0  0
 33 36  1  0  0  0
 33 61  1  0  0  0
 34 62  1  0  0  0
 35 37  1  0  0  0
 35 38  2  0  0  0
 36 63  1  0  0  0
 37 39  2  0  0  0
 37 64  1  0  0  0
 38 40  1  0  0  0
 38 65  1  0  0  0
 39 41  1  0  0  0
 39 42  1  0  0  0
 40 41  2  0  0  0
 40 66  1  0  0  0
 41 67  1  0  0  0
 42 43  1  0  0  0
 42 44  2  0  0  0
 43 68  1  0  0  0
 43 69  1  0  0  0
M  CHG  5  35   1  70  -1  71  -1  72  -1  73  -1
M  END
> <i_ionizer_Ion_state_n>
30

> <i_ionizer_Tot_Q>
-3

> <s_ionizer_Ion_centers>
70_71_72_73

> <s_ionizer_Ion_types>
OM_OM_OM_OM

> <s_ionizer_Ion_ctrs_in>
18_19_26_30

> <r_ionizer_Ionization_penalty>
4.85714e-05

> <r_ionizer_Ionization_penalty_charging>
2.98356e-05

> <r_ionizer_Ionization_penalty_neutral>
1.87357e-05

> <s_st_Chirality_1>
1_R_4_2_3_45

> <s_st_Chirality_2>
3_R_8_1_7_46

> <s_st_Chirality_3>
7_R_13_3_9_48

> <s_st_Chirality_4>
9_R_4_7_15_49

> <s_st_Chirality_5>
29_R_30_31_28_58

> <s_st_Chirality_6>
31_R_34_33_29_59

> <s_st_Chirality_7>
32_R_30_35_33_60

> <s_st_Chirality_8>
33_R_36_32_31_61

> <i_mmod_Serial_Number-OPLS-2005>
6

> <i_i_glide_lignum>
6

> <r_i_docking_score>
-3.80171

> <r_i_glide_gscore>
-3.80171

> <r_i_glide_lipo>
-0.968243

> <r_i_glide_hbond>
-0.0846584

> <r_i_glide_metal>
0

> <r_i_glide_eburp>
3.40846e-18

> <r_i_glide_evdw>
-41.9425

> <r_i_glide_ecoul>
3.77789

> <r_i_glide_erotb>
0.278649

> <r_i_glide_esite>
-0.0498437

> <r_i_glide_emodel>
-42.7904

> <r_i_glide_energy>
-38.1646

> <r_i_glide_einternal>
6.77388

> <i_i_glide_confnum>
114

> <i_i_glide_posenum>
724

$$$$
C00448
                    3D
 Structure written by MMmdl.
 49 48  0  0  1  0            999 V2000
    1.9142    5.0356    1.7593 C   0  0  0  0  0  0
    1.6168    3.6641    1.9089 O   0  0  0  0  0  0
    0.6549    5.8693    1.9046 C   0  0  0  0  0  0
    2.8534    2.5245    2.1602 P   0  0  0  0  0  0
    0.0562    6.6428    0.9747 C   0  0  0  0  0  0
    2.0584    1.0316    1.9767 O   0  0  0  0  0  0
    3.8326    2.6646    1.0567 O   0  0  0  0  0  0
   -1.2030    7.4279    1.3113 C   0  0  0  0  0  0
    0.5492    6.8165   -0.4548 C   0  0  0  0  0  0
    1.0886   -0.2374    2.7791 P   0  0  0  0  0  0
   -1.7237    7.1479    2.7295 C   0  0  0  0  0  0
   -0.1854   -0.2933    1.9062 O   0  0  0  0  0  0
   -2.8915    8.0497    3.0885 C   0  0  0  0  0  0
   -3.0763    8.7365    4.2348 C   0  0  0  0  0  0
   -4.3273    9.5747    4.4508 C   0  0  0  0  0  0
   -2.0924    8.7444    5.3954 C   0  0  0  0  0  0
   -5.2911    8.9574    5.4758 C   0  0  0  0  0  0
   -6.6105    9.7076    5.5301 C   0  0  0  0  0  0
   -6.9740   10.7911    4.8135 C   0  0  0  0  0  0
   -8.3293   11.4419    5.0118 C   0  0  0  0  0  0
   -6.1080   11.4719    3.7662 C   0  0  0  0  0  0
    2.4224    5.1919    0.8105 H   0  0  0  0  0  0
    2.6147    5.3316    2.5403 H   0  0  0  0  0  0
    0.2108    5.8151    2.8876 H   0  0  0  0  0  0
   -0.9923    8.4915    1.1933 H   0  0  0  0  0  0
   -1.9841    7.1922    0.5870 H   0  0  0  0  0  0
    0.9840    7.8064   -0.5907 H   0  0  0  0  0  0
    1.2941    6.0815   -0.7497 H   0  0  0  0  0  0
   -0.2839    6.7138   -1.1502 H   0  0  0  0  0  0
   -2.0709    6.1163    2.7956 H   0  0  0  0  0  0
   -0.9217    7.2356    3.4594 H   0  0  0  0  0  0
   -3.6435    8.1271    2.3166 H   0  0  0  0  0  0
   -4.0271   10.5724    4.7738 H   0  0  0  0  0  0
   -4.8468    9.7073    3.5006 H   0  0  0  0  0  0
   -2.4461    8.0979    6.1984 H   0  0  0  0  0  0
   -1.0943    8.4187    5.1087 H   0  0  0  0  0  0
   -1.9915    9.7545    5.7930 H   0  0  0  0  0  0
   -5.5101    7.9260    5.1977 H   0  0  0  0  0  0
   -4.8257    8.9038    6.4573 H   0  0  0  0  0  0
   -7.3206    9.3002    6.2353 H   0  0  0  0  0  0
   -8.8988   11.4215    4.0823 H   0  0  0  0  0  0
   -8.9145   10.9313    5.7775 H   0  0  0  0  0  0
   -8.2077   12.4815    5.3168 H   0  0  0  0  0  0
   -6.6804   11.6152    2.8494 H   0  0  0  0  0  0
   -5.7920   12.4526    4.1222 H   0  0  0  0  0  0
   -5.2196   10.9036    3.4994 H   0  0  0  0  0  0
    3.3173    2.6577    3.5600 O   0  5  0  0  0  0
    2.0191   -1.4687    2.6961 O   0  5  0  0  0  0
    0.8998    0.3565    4.1941 O   0  5  0  0  0  0
  1  2  1  0  0  0
  1  3  1  0  0  0
  1 22  1  0  0  0
  1 23  1  0  0  0
  2  4  1  0  0  0
  3  5  2  0  0  0
  3 24  1  0  0  0
  4  6  1  0  0  0
  4  7  2  0  0  0
  4 47  1  0  0  0
  5  8  1  0  0  0
  5  9  1  0  0  0
  6 10  1  0  0  0
  8 11  1  0  0  0
  8 25  1  0  0  0
  8 26  1  0  0  0
  9 27  1  0  0  0
  9 28  1  0  0  0
  9 29  1  0  0  0
 10 12  2  0  0  0
 10 48  1  0  0  0
 10 49  1  0  0  0
 11 13  1  0  0  0
 11 30  1  0  0  0
 11 31  1  0  0  0
 13 14  2  0  0  0
 13 32  1  0  0  0
 14 15  1  0  0  0
 14 16  1  0  0  0
 15 17  1  0  0  0
 15 33  1  0  0  0
 15 34  1  0  0  0
 16 35  1  0  0  0
 16 36  1  0  0  0
 16 37  1  0  0  0
 17 18  1  0  0  0
 17 38  1  0  0  0
 17 39  1  0  0  0
 18 19  2  0  0  0
 18 40  1  0  0  0
 19 20  1  0  0  0
 19 21  1  0  0  0
 20 41  1  0  0  0
 20 42  1  0  0  0
 20 43  1  0  0  0
 21 44  1  0  0  0
 21 45  1  0  0  0
 21 46  1  0  0  0
M  CHG  3  47  -1  48  -1  49  -1
M  END
> <i_ionizer_Ion_state_n>
7

> <i_ionizer_Tot_Q>
-3

> <s_ionizer_Ion_centers>
47_48_49

> <s_ionizer_Ion_types>
OM_OM_OM

> <s_ionizer_Ion_ctrs_in>
7_13_14

> <r_ionizer_Ionization_penalty>
2.23767e-05

> <r_ionizer_Ionization_penalty_charging>
2.23767e-05

> <r_ionizer_Ionization_penalty_neutral>
0

> <s_st_EZ_1>
1_3_5_8_E

> <s_st_EZ_2>
11_13_14_15_E

> <i_mmod_Serial_Number-OPLS-2005>
242

> <i_i_glide_lignum>
240

> <r_i_docking_score>
-3.80165

> <r_i_glide_gscore>
-3.80165

> <r_i_glide_lipo>
-0.979758

> <r_i_glide_hbond>
-0.59012

> <r_i_glide_metal>
0

> <r_i_glide_eburp>
-0.914319

> <r_i_glide_evdw>
-29.2991

> <r_i_glide_ecoul>
-5.75645

> <r_i_glide_erotb>
1.54009

> <r_i_glide_esite>
0.0620251

> <r_i_glide_emodel>
-67.2785

> <r_i_glide_energy>
-35.0556

> <r_i_glide_einternal>
2.69596

> <i_i_glide_confnum>
140

> <i_i_glide_posenum>
294

$$$$
C00003
                    3D
 Structure written by MMmdl.
 70 74  0  0  1  0            999 V2000
    1.2113    4.0827    2.8081 N   0  0  0  0  0  0
    2.1391    3.1516    3.2177 C   0  0  0  0  0  0
    1.4838    5.5297    2.5486 C   0  0  2  0  0  0
    0.0262    3.3851    2.7033 C   0  0  0  0  0  0
    1.4326    1.9235    3.3296 C   0  0  0  0  0  0
    3.4678    3.3391    3.4667 N   0  0  0  0  0  0
    0.5036    6.2716    3.2148 O   0  0  0  0  0  0
    1.3307    5.8117    1.0513 C   0  0  1  0  0  0
    0.0980    2.1133    2.9951 N   0  0  0  0  0  0
    2.2031    0.8072    3.7410 C   0  0  0  0  0  0
    4.0600    2.2021    3.8435 C   0  0  0  0  0  0
   -0.3877    6.8987    2.2913 C   0  0  1  0  0  0
   -0.1397    6.1871    0.9565 C   0  0  1  0  0  0
    2.1916    6.8563    0.6397 O   0  0  0  0  0  0
    3.5214    0.9866    3.9902 N   0  0  0  0  0  0
    1.6888   -0.4200    3.8950 N   0  0  0  0  0  0
   -1.8307    6.8143    2.8318 C   0  0  0  0  0  0
   -0.4018    6.9878   -0.1806 O   0  0  0  0  0  0
   -2.5245    8.0502    2.7973 O   0  0  0  0  0  0
   -2.7108    9.0399    4.1720 P   0  0  0  0  0  0
   -4.3841    9.3217    4.2904 O   0  0  0  0  0  0
   -2.2882    8.2552    5.3552 O   0  0  0  0  0  0
   -5.3814   10.3887    5.1688 P   0  0  0  0  0  0
   -4.5475   10.6942    6.6216 O   0  0  0  0  0  0
   -5.4671   11.6672    4.4262 O   0  0  0  0  0  0
   -4.2157   12.0140    7.0043 C   0  0  0  0  0  0
   -3.1366   11.9989    8.0974 C   0  0  1  0  0  0
   -1.9125   11.5058    7.5595 O   0  0  0  0  0  0
   -2.8359   13.3931    8.6721 C   0  0  2  0  0  0
   -0.8818   12.4387    7.6384 C   0  0  2  0  0  0
   -1.3107   13.5303    8.6304 C   0  0  2  0  0  0
   -3.3708   13.5502    9.9735 O   0  0  0  0  0  0
   -0.6179   12.9670    6.2504 N   0  3  0  0  0  0
   -0.7006   13.3425    9.8965 O   0  0  0  0  0  0
   -1.6728   13.5787    5.5153 C   0  0  0  0  0  0
    0.6652   12.9399    5.6286 C   0  0  0  0  0  0
   -1.4618   14.1673    4.2505 C   0  0  0  0  0  0
    0.8775   13.4917    4.3525 C   0  0  0  0  0  0
   -0.1805   14.1070    3.6647 C   0  0  0  0  0  0
   -2.6055   14.8252    3.5379 C   0  0  0  0  0  0
   -2.5879   14.7458    2.2052 N   0  0  0  0  0  0
   -3.4700   15.4452    4.1536 O   0  0  0  0  0  0
    2.4841    5.7001    2.9495 H   0  0  0  0  0  0
   -0.8998    3.8516    2.4006 H   0  0  0  0  0  0
    1.5644    4.9279    0.4558 H   0  0  0  0  0  0
    5.1161    2.2745    4.0582 H   0  0  0  0  0  0
   -0.0593    7.9338    2.2196 H   0  0  0  0  0  0
   -0.7378    5.2765    0.9007 H   0  0  0  0  0  0
    1.9158    7.6442    1.0853 H   0  0  0  0  0  0
    2.2831   -1.1807    4.1898 H   0  0  0  0  0  0
    0.7076   -0.5769    3.7149 H   0  0  0  0  0  0
   -2.4126    6.0611    2.3000 H   0  0  0  0  0  0
   -1.8140    6.4976    3.8747 H   0  0  0  0  0  0
   -0.0543    7.8600   -0.0185 H   0  0  0  0  0  0
   -3.8949   12.5925    6.1385 H   0  0  0  0  0  0
   -5.1236   12.4836    7.3842 H   0  0  0  0  0  0
   -3.4372   11.3219    8.8986 H   0  0  0  0  0  0
   -3.2844   14.1645    8.0469 H   0  0  0  0  0  0
    0.0499   11.9492    7.9240 H   0  0  0  0  0  0
   -1.0050   14.5152    8.2750 H   0  0  0  0  0  0
   -3.0899   14.3870   10.3112 H   0  0  0  0  0  0
    0.2388   13.3584    9.7943 H   0  0  0  0  0  0
   -2.6445   13.6204    5.9858 H   0  0  0  0  0  0
    1.4913   12.4990    6.1593 H   0  0  0  0  0  0
    1.8630   13.4639    3.9111 H   0  0  0  0  0  0
    0.0037   14.5353    2.6899 H   0  0  0  0  0  0
   -3.3169   15.1927    1.6691 H   0  0  0  0  0  0
   -1.8284   14.2706    1.7395 H   0  0  0  0  0  0
   -2.0399   10.3269    3.8922 O   0  5  0  0  0  0
   -6.6283    9.6670    5.5080 O   0  5  0  0  0  0
  1  2  1  0  0  0
  1  3  1  0  0  0
  1  4  1  0  0  0
  2  5  2  0  0  0
  2  6  1  0  0  0
  3  7  1  0  0  0
  3  8  1  0  0  0
  3 43  1  0  0  0
  4  9  2  0  0  0
  4 44  1  0  0  0
  5 10  1  0  0  0
  5  9  1  0  0  0
  6 11  2  0  0  0
  7 12  1  0  0  0
  8 13  1  0  0  0
  8 14  1  0  0  0
  8 45  1  0  0  0
 10 15  2  0  0  0
 10 16  1  0  0  0
 11 15  1  0  0  0
 11 46  1  0  0  0
 12 17  1  0  0  0
 12 13  1  0  0  0
 12 47  1  0  0  0
 13 18  1  0  0  0
 13 48  1  0  0  0
 14 49  1  0  0  0
 16 50  1  0  0  0
 16 51  1  0  0  0
 17 19  1  0  0  0
 17 52  1  0  0  0
 17 53  1  0  0  0
 18 54  1  0  0  0
 19 20  1  0  0  0
 20 21  1  0  0  0
 20 22  2  0  0  0
 20 69  1  0  0  0
 21 23  1  0  0  0
 23 24  1  0  0  0
 23 25  2  0  0  0
 23 70  1  0  0  0
 24 26  1  0  0  0
 26 27  1  0  0  0
 26 55  1  0  0  0
 26 56  1  0  0  0
 27 28  1  0  0  0
 27 29  1  0  0  0
 27 57  1  0  0  0
 28 30  1  0  0  0
 29 31  1  0  0  0
 29 32  1  0  0  0
 29 58  1  0  0  0
 30 33  1  0  0  0
 30 31  1  0  0  0
 30 59  1  0  0  0
 31 34  1  0  0  0
 31 60  1  0  0  0
 32 61  1  0  0  0
 33 35  1  0  0  0
 33 36  2  0  0  0
 34 62  1  0  0  0
 35 37  2  0  0  0
 35 63  1  0  0  0
 36 38  1  0  0  0
 36 64  1  0  0  0
 37 39  1  0  0  0
 37 40  1  0  0  0
 38 39  2  0  0  0
 38 65  1  0  0  0
 39 66  1  0  0  0
 40 41  1  0  0  0
 40 42  2  0  0  0
 41 67  1  0  0  0
 41 68  1  0  0  0
M  CHG  3  33   1  69  -1  70  -1
M  END
> <i_ionizer_Ion_state_n>
6

> <i_ionizer_Tot_Q>
-1

> <s_ionizer_Ion_centers>
69_70

> <s_ionizer_Ion_types>
OM_OM

> <s_ionizer_Ion_ctrs_in>
22_26

> <r_ionizer_Ionization_penalty>
3.36536e-05

> <r_ionizer_Ionization_penalty_charging>
1.49178e-05

> <r_ionizer_Ionization_penalty_neutral>
1.87357e-05

> <s_st_Chirality_1>
3_R_7_1_8_43

> <s_st_Chirality_2>
8_R_14_3_13_45

> <s_st_Chirality_3>
12_R_7_13_17_47

> <s_st_Chirality_4>
13_R_18_8_12_48

> <s_st_Chirality_5>
27_R_28_29_26_57

> <s_st_Chirality_6>
29_R_32_31_27_58

> <s_st_Chirality_7>
30_R_28_33_31_59

> <s_st_Chirality_8>
31_R_34_30_29_60

> <i_mmod_Serial_Number-OPLS-2005>
3

> <i_i_glide_lignum>
3

> <r_i_docking_score>
-3.80014

> <r_i_glide_gscore>
-3.80014

> <r_i_glide_lipo>
-0.761826

> <r_i_glide_hbond>
-0.5

> <r_i_glide_metal>
0

> <r_i_glide_eburp>
0

> <r_i_glide_evdw>
-40.5601

> <r_i_glide_ecoul>
-3.102

> <r_i_glide_erotb>
0.374299

> <r_i_glide_esite>
0.642388

> <r_i_glide_emodel>
-73.2703

> <r_i_glide_energy>
-43.6621

> <r_i_glide_einternal>
15.4823

> <i_i_glide_confnum>
551

> <i_i_glide_posenum>
245

$$$$
C01261
                    3D
 Structure written by MMmdl.
 79 84  0  0  1  0            999 V2000
   -5.2158   16.0322    1.8808 N   0  0  0  0  0  0
   -3.9163   15.6244    2.1046 C   0  0  0  0  0  0
   -6.4534   15.3165    2.3294 C   0  0  2  0  0  0
   -5.0979   17.2024    1.1639 C   0  0  0  0  0  0
   -3.1020   16.5588    1.4968 C   0  0  0  0  0  0
   -3.5074   14.5108    2.7884 N   0  0  0  0  0  0
   -6.3562   15.1322    3.7115 O   0  0  0  0  0  0
   -6.5254   13.9323    1.6773 C   0  0  1  0  0  0
   -3.8700   17.5543    0.9097 N   0  0  0  0  0  0
   -1.6771   16.3987    1.5425 C   0  0  0  0  0  0
   -2.1956   14.3658    2.8393 C   0  0  0  0  0  0
   -6.2600   13.7475    4.0447 C   0  0  1  0  0  0
   -5.8801   13.0557    2.7362 C   0  0  1  0  0  0
   -7.8644   13.5608    1.4105 O   0  0  0  0  0  0
   -1.2974   15.2528    2.2512 N   0  0  0  0  0  0
   -0.8132   17.1215    1.0495 O   0  0  0  0  0  0
   -1.6774   13.3144    3.4860 N   0  0  0  0  0  0
   -5.2346   13.5757    5.1716 C   0  0  0  0  0  0
   -6.3026   11.7064    2.6639 O   0  0  0  0  0  0
   -5.7165   14.1381    6.3740 O   0  0  0  0  0  0
   -4.8549   13.9540    7.8301 P   0  0  0  0  0  0
   -4.6789   12.2770    8.0670 O   0  0  0  0  0  0
   -3.5080   14.5380    7.6355 O   0  0  0  0  0  0
   -4.4721   11.2068    9.3749 P   0  0  0  0  0  0
   -3.2743   10.1205    8.8790 O   0  0  0  0  0  0
   -3.9357   11.9560   10.5347 O   0  0  0  0  0  0
   -2.1894   10.1176    7.5778 P   0  0  0  0  0  0
   -2.7937    8.9007    6.5597 O   0  0  0  0  0  0
   -2.2926   11.4278    6.8963 O   0  0  0  0  0  0
   -3.0337    8.7107    4.8897 P   0  0  0  0  0  0
   -1.7524    7.7215    4.3473 O   0  0  0  0  0  0
   -4.2925    7.9532    4.6987 O   0  0  0  0  0  0
   -1.6207    7.3243    2.9929 C   0  0  0  0  0  0
   -0.1855    6.8781    2.6793 C   0  0  1  0  0  0
    0.1521    5.7076    3.4057 O   0  0  0  0  0  0
    0.0253    6.3972    1.2460 C   0  0  2  0  0  0
    1.2731    5.1184    2.8281 C   0  0  2  0  0  0
    1.3105    5.5799    1.3573 C   0  0  2  0  0  0
    0.1317    7.4525    0.3094 O   0  0  0  0  0  0
    1.1172    3.6367    2.9319 N   0  0  0  0  0  0
    2.4625    6.3660    1.1041 O   0  0  0  0  0  0
    2.0730    2.7494    3.3787 C   0  0  0  0  0  0
    0.0021    2.8655    2.6996 C   0  0  0  0  0  0
    1.4899    1.4989    3.3623 C   0  0  0  0  0  0
    3.3523    3.0482    3.7599 N   0  0  0  0  0  0
    0.1761    1.5905    2.9157 N   0  0  0  0  0  0
    2.2551    0.3567    3.7779 C   0  0  0  0  0  0
    4.0561    2.0022    4.1475 C   0  0  0  0  0  0
    3.5561    0.7028    4.1659 N   0  0  0  0  0  0
    1.9074   -0.8216    3.8224 O   0  0  0  0  0  0
    5.3218    2.1812    4.5446 N   0  0  0  0  0  0
   -7.2793   15.9794    2.0701 H   0  0  0  0  0  0
   -5.9367   17.7908    0.8241 H   0  0  0  0  0  0
   -5.9700   13.9105    0.7382 H   0  0  0  0  0  0
   -7.2461   13.4120    4.3694 H   0  0  0  0  0  0
   -4.8032   13.0981    2.6069 H   0  0  0  0  0  0
   -7.8464   12.6773    1.0719 H   0  0  0  0  0  0
   -0.3069   15.0788    2.3287 H   0  0  0  0  0  0
   -2.2993   12.6521    3.9269 H   0  0  0  0  0  0
   -0.6786   13.1816    3.5415 H   0  0  0  0  0  0
   -5.0115   12.5233    5.3303 H   0  0  0  0  0  0
   -4.2960   14.0599    4.9014 H   0  0  0  0  0  0
   -5.6387   11.2177    2.1951 H   0  0  0  0  0  0
   -2.3375    6.5406    2.7461 H   0  0  0  0  0  0
   -1.8774    8.1880    2.3796 H   0  0  0  0  0  0
    0.5212    7.6765    2.9087 H   0  0  0  0  0  0
   -0.7990    5.7421    0.9596 H   0  0  0  0  0  0
    2.1765    5.3443    3.3966 H   0  0  0  0  0  0
    1.2941    4.7375    0.6653 H   0  0  0  0  0  0
    0.4771    8.2037    0.7698 H   0  0  0  0  0  0
    2.3681    7.1835    1.5727 H   0  0  0  0  0  0
   -0.9449    3.2752    2.3755 H   0  0  0  0  0  0
    4.1497   -0.0517    4.4748 H   0  0  0  0  0  0
    5.7120    3.1155    4.5266 H   0  0  0  0  0  0
    5.8830    1.4052    4.8613 H   0  0  0  0  0  0
   -5.7096   14.4769    8.9199 O   0  5  0  0  0  0
   -5.7304   10.4448    9.5373 O   0  5  0  0  0  0
   -0.8798    9.6877    8.1209 O   0  5  0  0  0  0
   -2.8846   10.0315    4.2388 O   0  5  0  0  0  0
  1  2  1  0  0  0
  1  3  1  0  0  0
  1  4  1  0  0  0
  2  5  2  0  0  0
  2  6  1  0  0  0
  3  7  1  0  0  0
  3  8  1  0  0  0
  3 52  1  0  0  0
  4  9  2  0  0  0
  4 53  1  0  0  0
  5 10  1  0  0  0
  5  9  1  0  0  0
  6 11  2  0  0  0
  7 12  1  0  0  0
  8 13  1  0  0  0
  8 14  1  0  0  0
  8 54  1  0  0  0
 10 15  1  0  0  0
 10 16  2  0  0  0
 11 17  1  0  0  0
 11 15  1  0  0  0
 12 18  1  0  0  0
 12 13  1  0  0  0
 12 55  1  0  0  0
 13 19  1  0  0  0
 13 56  1  0  0  0
 14 57  1  0  0  0
 15 58  1  0  0  0
 17 59  1  0  0  0
 17 60  1  0  0  0
 18 20  1  0  0  0
 18 61  1  0  0  0
 18 62  1  0  0  0
 19 63  1  0  0  0
 20 21  1  0  0  0
 21 22  1  0  0  0
 21 23  2  0  0  0
 21 76  1  0  0  0
 22 24  1  0  0  0
 24 25  1  0  0  0
 24 26  2  0  0  0
 24 77  1  0  0  0
 25 27  1  0  0  0
 27 28  1  0  0  0
 27 29  2  0  0  0
 27 78  1  0  0  0
 28 30  1  0  0  0
 30 31  1  0  0  0
 30 32  2  0  0  0
 30 79  1  0  0  0
 31 33  1  0  0  0
 33 34  1  0  0  0
 33 64  1  0  0  0
 33 65  1  0  0  0
 34 35  1  0  0  0
 34 36  1  0  0  0
 34 66  1  0  0  0
 35 37  1  0  0  0
 36 38  1  0  0  0
 36 39  1  0  0  0
 36 67  1  0  0  0
 37 40  1  0  0  0
 37 38  1  0  0  0
 37 68  1  0  0  0
 38 41  1  0  0  0
 38 69  1  0  0  0
 39 70  1  0  0  0
 40 42  1  0  0  0
 40 43  1  0  0  0
 41 71  1  0  0  0
 42 44  2  0  0  0
 42 45  1  0  0  0
 43 46  2  0  0  0
 43 72  1  0  0  0
 44 47  1  0  0  0
 44 46  1  0  0  0
 45 48  2  0  0  0
 47 49  1  0  0  0
 47 50  2  0  0  0
 48 51  1  0  0  0
 48 49  1  0  0  0
 49 73  1  0  0  0
 51 74  1  0  0  0
 51 75  1  0  0  0
M  CHG  4  76  -1  77  -1  78  -1  79  -1
M  END
> <i_ionizer_Ion_state_n>
30

> <i_ionizer_Tot_Q>
-4

> <s_ionizer_Ion_centers>
76_77_78_79

> <s_ionizer_Ion_types>
OM_OM_OM_OM

> <s_ionizer_Ion_ctrs_in>
23_27_31_35

> <r_ionizer_Ionization_penalty>
6.73071e-05

> <r_ionizer_Ionization_penalty_charging>
2.98356e-05

> <r_ionizer_Ionization_penalty_neutral>
3.74715e-05

> <s_st_Chirality_1>
3_R_7_1_8_52

> <s_st_Chirality_2>
8_R_14_3_13_54

> <s_st_Chirality_3>
12_R_7_13_18_55

> <s_st_Chirality_4>
13_R_19_8_12_56

> <s_st_Chirality_5>
34_R_35_36_33_66

> <s_st_Chirality_6>
36_R_39_38_34_67

> <s_st_Chirality_7>
37_R_35_40_38_68

> <s_st_Chirality_8>
38_R_41_37_36_69

> <i_mmod_Serial_Number-OPLS-2005>
434

> <i_i_glide_lignum>
430

> <r_i_docking_score>
-3.80007

> <r_i_glide_gscore>
-3.80007

> <r_i_glide_lipo>
-0.653306

> <r_i_glide_hbond>
-0.537983

> <r_i_glide_metal>
0

> <r_i_glide_eburp>
4.94396e-17

> <r_i_glide_evdw>
-40.2465

> <r_i_glide_ecoul>
1.83471

> <r_i_glide_erotb>
0.225486

> <r_i_glide_esite>
0.201978

> <r_i_glide_emodel>
-50.405

> <r_i_glide_energy>
-38.4118

> <r_i_glide_einternal>
9.03118

> <i_i_glide_confnum>
294

> <i_i_glide_posenum>
217

$$$$
C06651
                    3D
 Structure written by MMmdl.
 31 31  0  0  1  0            999 V2000
    4.5806    0.2496    1.4441 C   0  0  0  0  0  0
    3.8006    0.6847    2.6910 C   0  0  2  0  0  0
    4.4287   -1.0733    0.9717 C   0  0  0  0  0  0
    5.4535    1.1244    0.7547 C   0  0  0  0  0  0
    3.0774    2.0338    2.4990 C   0  0  0  0  0  0
    4.6020    0.5856    4.0252 C   0  0  0  0  0  0
    5.1345   -1.5154   -0.1640 C   0  0  0  0  0  0
    6.1590    0.6835   -0.3814 C   0  0  0  0  0  0
    3.8426    3.2568    2.8093 C   0  0  0  0  0  0
    1.9021    2.0584    2.1316 O   0  0  0  0  0  0
    5.8594   -0.6727    3.8759 Cl  0  0  0  0  0  0
    5.3800    2.1308    4.4732 Cl  0  0  0  0  0  0
    3.5084    0.0997    5.3507 Cl  0  0  0  0  0  0
    6.0009   -0.6372   -0.8414 C   0  0  0  0  0  0
    3.3732    4.5213    2.7336 C   0  0  0  0  0  0
    6.8659   -1.1780   -2.2328 Cl  0  0  0  0  0  0
    2.0775    4.9823    2.2384 C   0  0  0  0  0  0
    0.9284    4.4375    2.7166 C   0  0  0  0  0  0
    2.0628    6.3037    1.1123 Cl  0  0  0  0  0  0
   -0.5556    4.8188    2.3488 C   0  0  0  0  0  0
    1.0112    3.4452    3.6172 O   0  0  0  0  0  0
   -1.4798    4.0759    2.7427 O   0  0  0  0  0  0
    3.0027   -0.0523    2.7848 H   0  0  0  0  0  0
    3.7701   -1.7609    1.4819 H   0  0  0  0  0  0
    5.5844    2.1436    1.0838 H   0  0  0  0  0  0
    5.0105   -2.5297   -0.5139 H   0  0  0  0  0  0
    6.8207    1.3615   -0.9001 H   0  0  0  0  0  0
    4.8587    3.1128    3.1456 H   0  0  0  0  0  0
    4.0632    5.2924    3.0442 H   0  0  0  0  0  0
    1.9221    3.1842    3.6346 H   0  0  0  0  0  0
   -0.6802    5.8672    1.6759 O   0  5  0  0  0  0
  1  2  1  0  0  0
  1  3  1  0  0  0
  1  4  2  0  0  0
  2  5  1  0  0  0
  2  6  1  0  0  0
  2 23  1  0  0  0
  3  7  2  0  0  0
  3 24  1  0  0  0
  4  8  1  0  0  0
  4 25  1  0  0  0
  5  9  1  0  0  0
  5 10  2  0  0  0
  6 11  1  0  0  0
  6 12  1  0  0  0
  6 13  1  0  0  0
  7 14  1  0  0  0
  7 26  1  0  0  0
  8 14  2  0  0  0
  8 27  1  0  0  0
  9 15  2  0  0  0
  9 28  1  0  0  0
 14 16  1  0  0  0
 15 17  1  0  0  0
 15 29  1  0  0  0
 17 18  2  0  0  0
 17 19  1  0  0  0
 18 20  1  0  0  0
 18 21  1  0  0  0
 20 22  2  0  0  0
 20 31  1  0  0  0
 21 30  1  0  0  0
M  CHG  1  31  -1
M  END
> <i_ionizer_Ion_state_n>
1

> <i_ionizer_Tot_Q>
-1

> <s_ionizer_Ion_centers>
31

> <s_ionizer_Ion_types>
OM

> <s_ionizer_Ion_ctrs_in>
22

> <r_ionizer_Ionization_penalty>
0.00059219

> <r_ionizer_Ionization_penalty_charging>
0.00059219

> <r_ionizer_Ionization_penalty_neutral>
0

> <s_st_Chirality_1>
2_R_6_5_1_23

> <s_st_EZ_1>
5_9_15_17_Z

> <i_mmod_Serial_Number-OPLS-2005>
883

> <i_i_glide_lignum>
871

> <r_i_docking_score>
-3.79213

> <r_i_glide_gscore>
-3.79213

> <r_i_glide_lipo>
-1.69657

> <r_i_glide_hbond>
-0.7

> <r_i_glide_metal>
0

> <r_i_glide_eburp>
-0.625133

> <r_i_glide_evdw>
-6.42937

> <r_i_glide_ecoul>
-2.30408

> <r_i_glide_erotb>
0.648029

> <r_i_glide_esite>
-0.6737

> <r_i_glide_emodel>
-23.8436

> <r_i_glide_energy>
-8.73345

> <r_i_glide_einternal>
13.9578

> <i_i_glide_confnum>
17

> <i_i_glide_posenum>
592

$$$$
C00077
                    3D
 Structure written by MMmdl.
 22 21  0  0  1  0            999 V2000
    3.1112    0.3251    4.4438 C   0  0  2  0  0  0
    1.8756    1.0430    3.8859 C   0  0  0  0  0  0
    4.3737    1.2059    4.2993 C   0  0  0  0  0  0
    1.8562    1.2952    2.6601 O   0  0  0  0  0  0
    5.6639    0.5032    4.7537 C   0  0  0  0  0  0
    5.7819    0.4332    6.2836 C   0  0  0  0  0  0
    2.9440    0.1019    5.4993 H   0  0  0  0  0  0
    4.4799    1.5449    3.2673 H   0  0  0  0  0  0
    4.2535    2.1102    4.8991 H   0  0  0  0  0  0
    2.4201   -1.5016    3.8595 H   0  0  0  0  0  0
    3.3725   -0.7596    2.7403 H   0  0  0  0  0  0
    5.6879   -0.5071    4.3424 H   0  0  0  0  0  0
    6.5293    1.0256    4.3441 H   0  0  0  0  0  0
    5.9206    1.4317    6.6996 H   0  0  0  0  0  0
    4.8658    0.0294    6.7163 H   0  0  0  0  0  0
    6.9592   -0.4414    7.7087 H   0  0  0  0  0  0
    6.7796   -1.3526    6.3477 H   0  0  0  0  0  0
    3.2570   -0.9525    3.7252 N   0  3  0  0  0  0
    4.0581   -1.4570    4.0750 H   0  0  0  0  0  0
    0.9586    1.3077    4.6929 O   0  5  0  0  0  0
    6.9119   -0.4151    6.6999 N   0  3  0  0  0  0
    7.7744   -0.0371    6.3348 H   0  0  0  0  0  0
  1  2  1  0  0  0
  1  3  1  0  0  0
  1  7  1  0  0  0
  1 18  1  0  0  0
  2  4  2  0  0  0
  2 20  1  0  0  0
  3  5  1  0  0  0
  3  8  1  0  0  0
  3  9  1  0  0  0
  5  6  1  0  0  0
  5 12  1  0  0  0
  5 13  1  0  0  0
  6 14  1  0  0  0
  6 15  1  0  0  0
  6 21  1  0  0  0
 10 18  1  0  0  0
 11 18  1  0  0  0
 16 21  1  0  0  0
 17 21  1  0  0  0
 18 19  1  0  0  0
 21 22  1  0  0  0
M  CHG  3  18   1  20  -1  21   1
M  END
> <i_ionizer_Ion_state_n>
7

> <i_ionizer_Tot_Q>
1

> <s_ionizer_Ion_centers>
18_20_21

> <s_ionizer_Ion_types>
N5_OM_N5

> <s_ionizer_Ion_ctrs_in>
4_5_9

> <r_ionizer_Ionization_penalty>
0.000966851

> <r_ionizer_Ionization_penalty_charging>
0.000966851

> <r_ionizer_Ionization_penalty_neutral>
0

> <s_st_Chirality_1>
1_S_18_2_3_7

> <i_mmod_Serial_Number-OPLS-2005>
53

> <i_i_glide_lignum>
52

> <r_i_docking_score>
-3.78825

> <r_i_glide_gscore>
-3.78825

> <r_i_glide_lipo>
-0.402476

> <r_i_glide_hbond>
-1.04247

> <r_i_glide_metal>
0

> <r_i_glide_eburp>
-2.5

> <r_i_glide_evdw>
-10.8328

> <r_i_glide_ecoul>
-8.55841

> <r_i_glide_erotb>
1.80344

> <r_i_glide_esite>
0.0757236

> <r_i_glide_emodel>
-42.2091

> <r_i_glide_energy>
-19.3912

> <r_i_glide_einternal>
5.13338

> <i_i_glide_confnum>
9

> <i_i_glide_posenum>
535

$$$$
C00565
                    3D
 Structure written by MMmdl.
 14 13  0  0  1  0            999 V2000
    4.3099   -0.0889    2.8340 C   0  0  0  0  0  0
    5.1560    0.6454    5.0198 C   0  0  0  0  0  0
    2.8993   -0.3063    4.8330 C   0  0  0  0  0  0
    3.7122   -0.8440    2.3221 H   0  0  0  0  0  0
    3.9170    0.8942    2.5708 H   0  0  0  0  0  0
    5.3303   -0.1615    2.4561 H   0  0  0  0  0  0
    5.1695    0.4208    6.0870 H   0  0  0  0  0  0
    6.1809    0.5767    4.6535 H   0  0  0  0  0  0
    4.8153    1.6738    4.8912 H   0  0  0  0  0  0
    2.9009   -0.5360    5.8992 H   0  0  0  0  0  0
    2.4196    0.6635    4.6929 H   0  0  0  0  0  0
    2.2941   -1.0625    4.3317 H   0  0  0  0  0  0
    4.2778   -0.3000    4.2973 N   0  3  0  0  0  0
    4.6536   -1.2234    4.4621 H   0  0  0  0  0  0
  1  4  1  0  0  0
  1  5  1  0  0  0
  1  6  1  0  0  0
  1 13  1  0  0  0
  2  7  1  0  0  0
  2  8  1  0  0  0
  2  9  1  0  0  0
  2 13  1  0  0  0
  3 10  1  0  0  0
  3 11  1  0  0  0
  3 12  1  0  0  0
  3 13  1  0  0  0
 13 14  1  0  0  0
M  CHG  1  13   1
M  END
> <i_ionizer_Ion_state_n>
1

> <i_ionizer_Tot_Q>
1

> <s_ionizer_Ion_centers>
13

> <s_ionizer_Ion_types>
N5

> <s_ionizer_Ion_ctrs_in>
1

> <r_ionizer_Ionization_penalty>
0.00059219

> <r_ionizer_Ionization_penalty_charging>
0.00059219

> <r_ionizer_Ionization_penalty_neutral>
0

> <i_mmod_Serial_Number-OPLS-2005>
280

> <i_i_glide_lignum>
278

> <r_i_docking_score>
-3.78175

> <r_i_glide_gscore>
-3.78175

> <r_i_glide_lipo>
-0.266544

> <r_i_glide_hbond>
-0.33241

> <r_i_glide_metal>
0

> <r_i_glide_eburp>
-2.5

> <r_i_glide_evdw>
-6.66051

> <r_i_glide_ecoul>
-3.66353

> <r_i_glide_erotb>
0

> <r_i_glide_esite>
0.216393

> <r_i_glide_emodel>
-16.243

> <r_i_glide_energy>
-10.324

> <r_i_glide_einternal>
0

> <i_i_glide_confnum>
1

> <i_i_glide_posenum>
294

$$$$
C00535
                    3D
 Structure written by MMmdl.
 49 52  0  0  1  0            999 V2000
    1.9489    2.9199    2.9606 C   0  0  2  0  0  0
    2.2002    3.6009    1.5770 C   0  0  1  0  0  0
    1.6899    1.4219    2.7298 C   0  0  1  0  0  0
    0.7821    3.5884    3.7122 C   0  0  0  0  0  0
    2.4279    5.1386    1.7229 C   0  0  2  0  0  0
    3.3054    2.8614    0.7727 C   0  0  0  0  0  0
    2.8690    0.7127    2.0545 C   0  0  2  0  0  0
    1.3401    0.5285    3.9229 C   0  0  0  0  0  0
    0.9787    5.1040    3.8448 C   0  0  0  0  0  0
    1.2077    5.7039    2.4715 C   0  0  0  0  0  0
    2.6094    5.8528    0.3537 C   0  0  0  0  0  0
    3.7155    5.4298    2.5250 C   0  0  0  0  0  0
    3.0588    1.3410    0.6650 C   0  0  0  0  0  0
    2.3224   -0.7250    2.0492 C   0  0  2  0  0  0
    4.1843    0.7973    2.8722 C   0  0  0  0  0  0
    1.6523   -0.8956    3.4269 C   0  0  0  0  0  0
    0.3183    6.5727    1.9464 C   0  0  0  0  0  0
    1.2996    6.1710   -0.3727 C   0  0  0  0  0  0
    3.3005   -1.7151    1.8049 O   0  0  0  0  0  0
    0.3989    6.9930    0.5427 C   0  0  0  0  0  0
   -0.2446    7.9350    0.0852 O   0  0  0  0  0  0
    2.8376    3.0239    3.5807 H   0  0  0  0  0  0
    1.2810    3.4785    1.0025 H   0  0  0  0  0  0
    0.8387    1.3568    2.0493 H   0  0  0  0  0  0
   -0.1493    3.3944    3.1792 H   0  0  0  0  0  0
    0.6711    3.1465    4.7024 H   0  0  0  0  0  0
    3.3687    3.2615   -0.2378 H   0  0  0  0  0  0
    4.2782    3.0377    1.2297 H   0  0  0  0  0  0
    1.9669    0.7732    4.7807 H   0  0  0  0  0  0
    0.2985    0.6405    4.2243 H   0  0  0  0  0  0
    0.1023    5.5554    4.3105 H   0  0  0  0  0  0
    1.8275    5.3258    4.4910 H   0  0  0  0  0  0
    3.1162    6.8040    0.5233 H   0  0  0  0  0  0
    3.2767    5.2974   -0.3023 H   0  0  0  0  0  0
    3.8292    6.5000    2.7001 H   0  0  0  0  0  0
    3.7235    4.9425    3.4985 H   0  0  0  0  0  0
    4.6014    5.0946    1.9858 H   0  0  0  0  0  0
    2.1691    1.1659    0.0593 H   0  0  0  0  0  0
    3.8875    0.8613    0.1437 H   0  0  0  0  0  0
    1.5551   -0.8091    1.2785 H   0  0  0  0  0  0
    4.9913    0.2688    2.3645 H   0  0  0  0  0  0
    4.5166    1.8246    3.0130 H   0  0  0  0  0  0
    4.0764    0.3548    3.8622 H   0  0  0  0  0  0
    2.3226   -1.3873    4.1325 H   0  0  0  0  0  0
    0.7519   -1.5051    3.3480 H   0  0  0  0  0  0
   -0.5316    6.9089    2.5222 H   0  0  0  0  0  0
    1.4977    6.7270   -1.2894 H   0  0  0  0  0  0
    0.7832    5.2527   -0.6523 H   0  0  0  0  0  0
    3.6352   -1.5947    0.9295 H   0  0  0  0  0  0
  1  2  1  0  0  0
  1  3  1  0  0  0
  1  4  1  0  0  0
  1 22  1  0  0  0
  2  5  1  0  0  0
  2  6  1  0  0  0
  2 23  1  0  0  0
  3  7  1  0  0  0
  3  8  1  0  0  0
  3 24  1  0  0  0
  4  9  1  0  0  0
  4 25  1  0  0  0
  4 26  1  0  0  0
  5 10  1  0  0  0
  5 11  1  0  0  0
  5 12  1  0  0  0
  6 13  1  0  0  0
  6 27  1  0  0  0
  6 28  1  0  0  0
  7 14  1  0  0  0
  7 15  1  0  0  0
  7 13  1  0  0  0
  8 16  1  0  0  0
  8 29  1  0  0  0
  8 30  1  0  0  0
  9 10  1  0  0  0
  9 31  1  0  0  0
  9 32  1  0  0  0
 10 17  2  0  0  0
 11 18  1  0  0  0
 11 33  1  0  0  0
 11 34  1  0  0  0
 12 35  1  0  0  0
 12 36  1  0  0  0
 12 37  1  0  0  0
 13 38  1  0  0  0
 13 39  1  0  0  0
 14 19  1  0  0  0
 14 16  1  0  0  0
 14 40  1  0  0  0
 15 41  1  0  0  0
 15 42  1  0  0  0
 15 43  1  0  0  0
 16 44  1  0  0  0
 16 45  1  0  0  0
 17 20  1  0  0  0
 17 46  1  0  0  0
 18 20  1  0  0  0
 18 47  1  0  0  0
 18 48  1  0  0  0
 19 49  1  0  0  0
 20 21  2  0  0  0
M  END
> <i_ionizer_Ion_state_n>
0

> <i_ionizer_Tot_Q>
0

> <s_ionizer_Ion_centers>


> <s_ionizer_Ion_types>


> <s_ionizer_Ion_ctrs_in>


> <r_ionizer_Ionization_penalty>
0

> <r_ionizer_Ionization_penalty_charging>
0

> <r_ionizer_Ionization_penalty_neutral>
0

> <s_st_Chirality_1>
1_R_3_2_4_22

> <s_st_Chirality_2>
2_S_5_1_6_23

> <s_st_Chirality_3>
3_S_7_1_8_24

> <s_st_Chirality_4>
5_R_10_2_11_12

> <s_st_Chirality_5>
7_S_14_3_13_15

> <s_st_Chirality_6>
14_S_19_7_16_40

> <s_st_EZ_1>
5_10_17_20_Z

> <i_mmod_Serial_Number-OPLS-2005>
274

> <i_i_glide_lignum>
272

> <r_i_docking_score>
-3.77534

> <r_i_glide_gscore>
-3.77534

> <r_i_glide_lipo>
-1.70926

> <r_i_glide_hbond>
0

> <r_i_glide_metal>
0

> <r_i_glide_eburp>
-1.60277

> <r_i_glide_evdw>
1.63661

> <r_i_glide_ecoul>
2.16733

> <r_i_glide_erotb>
0

> <r_i_glide_esite>
-0.810971

> <r_i_glide_emodel>
3.55335

> <r_i_glide_energy>
3.80394

> <r_i_glide_einternal>
0.412007

> <i_i_glide_confnum>
1

> <i_i_glide_posenum>
528

$$$$
C05503
                    3D
 Structure written by MMmdl.
 63 67  0  0  1  0            999 V2000
    2.1858    3.2458    1.4901 C   0  0  2  0  0  0
    1.7523    3.8256    2.8638 C   0  0  1  0  0  0
    3.0524    1.9960    1.7355 C   0  0  1  0  0  0
    2.8997    4.3306    0.6753 C   0  0  0  0  0  0
    0.9715    5.1395    2.7163 C   0  0  0  0  0  0
    1.0601    2.7446    3.7420 C   0  0  0  0  0  0
    2.2958    0.8873    2.4895 C   0  0  2  0  0  0
    3.7095    1.2768    0.5527 C   0  0  0  0  0  0
    1.9427    5.4855    0.3582 C   0  0  0  0  0  0
    1.0844    5.9223    1.5376 C   0  0  0  0  0  0
    0.1660    5.6248    3.7718 C   0  0  0  0  0  0
    1.8942    1.4463    3.8697 C   0  0  0  0  0  0
    3.4011   -0.1894    2.5104 C   0  0  2  0  0  0
    1.0385    0.3569    1.7397 C   0  0  0  0  0  0
    4.0390   -0.1250    1.1056 C   0  0  0  0  0  0
    0.3779    7.1377    1.4281 C   0  0  0  0  0  0
   -0.5342    6.8397    3.6530 C   0  0  0  0  0  0
    2.9460   -1.4887    2.8326 O   0  0  0  0  0  0
   -0.4405    7.6127    2.4705 C   0  0  0  0  0  0
   -1.0816    8.8158    2.2423 O   0  0  0  0  0  0
   -2.0904    9.2521    3.1063 C   0  0  2  0  0  0
   -1.4918    9.5239    4.3385 O   0  0  0  0  0  0
   -3.1133    8.0963    3.2905 C   0  0  1  0  0  0
   -2.3710   10.0007    5.3501 C   0  0  1  0  0  0
   -4.1103    8.4540    4.4151 C   0  0  2  0  0  0
   -3.9001    7.9072    2.1308 O   0  0  0  0  0  0
   -3.3687    8.8714    5.6931 C   0  0  2  0  0  0
   -1.5430   10.4446    6.5659 C   0  0  0  0  0  0
   -4.8836    7.3012    4.7001 O   0  0  0  0  0  0
   -4.3046    9.3126    6.6632 O   0  0  0  0  0  0
   -1.0973    9.5550    7.3253 O   0  0  0  0  0  0
    1.2997    2.9609    0.9235 H   0  0  0  0  0  0
    2.6619    4.1122    3.3942 H   0  0  0  0  0  0
    3.8816    2.3236    2.3676 H   0  0  0  0  0  0
    3.7518    4.7060    1.2436 H   0  0  0  0  0  0
    3.3011    3.9286   -0.2551 H   0  0  0  0  0  0
    0.8961    3.1178    4.7516 H   0  0  0  0  0  0
    0.0719    2.5213    3.3402 H   0  0  0  0  0  0
    3.0181    1.2030   -0.2874 H   0  0  0  0  0  0
    4.6007    1.7984    0.2023 H   0  0  0  0  0  0
    2.5078    6.3387   -0.0189 H   0  0  0  0  0  0
    1.2670    5.1829   -0.4426 H   0  0  0  0  0  0
    0.0744    5.0827    4.6991 H   0  0  0  0  0  0
    2.7894    1.6621    4.4545 H   0  0  0  0  0  0
    1.3383    0.6980    4.4355 H   0  0  0  0  0  0
    4.1588    0.0854    3.2463 H   0  0  0  0  0  0
    1.2799   -0.0566    0.7610 H   0  0  0  0  0  0
    0.5540   -0.4380    2.3069 H   0  0  0  0  0  0
    0.2811    1.1216    1.5798 H   0  0  0  0  0  0
    3.6207   -0.8857    0.4449 H   0  0  0  0  0  0
    5.1143   -0.2985    1.1585 H   0  0  0  0  0  0
    0.4627    7.7215    0.5230 H   0  0  0  0  0  0
   -1.1234    7.1568    4.4986 H   0  0  0  0  0  0
    3.6847   -2.0016    3.1229 H   0  0  0  0  0  0
   -2.5530   10.1835    2.7802 H   0  0  0  0  0  0
   -2.5667    7.1828    3.5306 H   0  0  0  0  0  0
   -2.9118   10.8720    4.9743 H   0  0  0  0  0  0
   -4.7693    9.2616    4.0901 H   0  0  0  0  0  0
   -4.0879    8.7608    1.7696 H   0  0  0  0  0  0
   -2.8260    8.0156    6.0991 H   0  0  0  0  0  0
   -5.6301    7.5649    5.2161 H   0  0  0  0  0  0
   -4.7620   10.0636    6.3186 H   0  0  0  0  0  0
   -1.3484   11.6729    6.7016 O   0  5  0  0  0  0
  1  2  1  0  0  0
  1  3  1  0  0  0
  1  4  1  0  0  0
  1 32  1  0  0  0
  2  5  1  0  0  0
  2  6  1  0  0  0
  2 33  1  0  0  0
  3  7  1  0  0  0
  3  8  1  0  0  0
  3 34  1  0  0  0
  4  9  1  0  0  0
  4 35  1  0  0  0
  4 36  1  0  0  0
  5 10  2  0  0  0
  5 11  1  0  0  0
  6 12  1  0  0  0
  6 37  1  0  0  0
  6 38  1  0  0  0
  7 13  1  0  0  0
  7 14  1  0  0  0
  7 12  1  0  0  0
  8 15  1  0  0  0
  8 39  1  0  0  0
  8 40  1  0  0  0
  9 10  1  0  0  0
  9 41  1  0  0  0
  9 42  1  0  0  0
 10 16  1  0  0  0
 11 17  2  0  0  0
 11 43  1  0  0  0
 12 44  1  0  0  0
 12 45  1  0  0  0
 13 18  1  0  0  0
 13 15  1  0  0  0
 13 46  1  0  0  0
 14 47  1  0  0  0
 14 48  1  0  0  0
 14 49  1  0  0  0
 15 50  1  0  0  0
 15 51  1  0  0  0
 16 19  2  0  0  0
 16 52  1  0  0  0
 17 19  1  0  0  0
 17 53  1  0  0  0
 18 54  1  0  0  0
 19 20  1  0  0  0
 20 21  1  0  0  0
 21 22  1  0  0  0
 21 23  1  0  0  0
 21 55  1  0  0  0
 22 24  1  0  0  0
 23 25  1  0  0  0
 23 26  1  0  0  0
 23 56  1  0  0  0
 24 27  1  0  0  0
 24 28  1  0  0  0
 24 57  1  0  0  0
 25 29  1  0  0  0
 25 27  1  0  0  0
 25 58  1  0  0  0
 26 59  1  0  0  0
 27 30  1  0  0  0
 27 60  1  0  0  0
 28 31  2  0  0  0
 28 63  1  0  0  0
 29 61  1  0  0  0
 30 62  1  0  0  0
M  CHG  1  63  -1
M  END
> <i_ionizer_Ion_state_n>
1

> <i_ionizer_Tot_Q>
-1

> <s_ionizer_Ion_centers>
63

> <s_ionizer_Ion_types>
OM

> <s_ionizer_Ion_ctrs_in>
31

> <r_ionizer_Ionization_penalty>
0.00059219

> <r_ionizer_Ionization_penalty_charging>
0.00059219

> <r_ionizer_Ionization_penalty_neutral>
0

> <s_st_Chirality_1>
1_R_3_2_4_32

> <s_st_Chirality_2>
2_S_5_1_6_33

> <s_st_Chirality_3>
3_S_7_1_8_34

> <s_st_Chirality_4>
7_S_13_3_12_14

> <s_st_Chirality_5>
13_S_18_7_15_46

> <s_st_Chirality_6>
21_S_20_22_23_55

> <s_st_Chirality_7>
23_R_26_21_25_56

> <s_st_Chirality_8>
24_S_22_28_27_57

> <s_st_Chirality_9>
25_S_29_23_27_58

> <s_st_Chirality_10>
27_S_30_24_25_60

> <i_mmod_Serial_Number-OPLS-2005>
734

> <i_i_glide_lignum>
726

> <r_i_docking_score>
-3.76997

> <r_i_glide_gscore>
-3.76997

> <r_i_glide_lipo>
-1.8699

> <r_i_glide_hbond>
-0.841861

> <r_i_glide_metal>
0

> <r_i_glide_eburp>
-0.397653

> <r_i_glide_evdw>
-0.632693

> <r_i_glide_ecoul>
-8.57281

> <r_i_glide_erotb>
0.228556

> <r_i_glide_esite>
0.0187814

> <r_i_glide_emodel>
-12.7516

> <r_i_glide_energy>
-9.2055

> <r_i_glide_einternal>
16.0975

> <i_i_glide_confnum>
4

> <i_i_glide_posenum>
34

$$$$
C05480
                    3D
 Structure written by MMmdl.
 57 60  0  0  1  0            999 V2000
    0.6031    4.1866    2.0600 C   0  0  2  0  0  0
    1.9596    4.0738    1.2992 C   0  0  2  0  0  0
   -0.0318    5.6229    1.9817 C   0  0  1  0  0  0
    0.6456    3.5996    3.5008 C   0  0  0  0  0  0
    2.6389    2.7157    1.5668 C   0  0  2  0  0  0
    2.8151    5.3417    1.4502 C   0  0  0  0  0  0
    0.5562    6.3768    0.7517 C   0  0  2  0  0  0
   -1.5604    5.4684    1.7880 C   0  0  0  0  0  0
    0.2249    6.4434    3.2716 C   0  0  0  0  0  0
    1.3323    2.2230    3.6041 C   0  0  0  0  0  0
    2.7587    2.2738    3.0281 C   0  0  1  0  0  0
    3.9957    2.4073    0.9371 C   0  0  0  0  0  0
    2.0878    6.5651    0.8580 C   0  0  0  0  0  0
   -0.1598    7.7083    0.4564 C   0  0  0  0  0  0
   -2.2762    6.7992    1.5011 C   0  0  0  0  0  0
    3.4266    0.8920    2.8079 C   0  0  1  0  0  0
    3.6625    3.1971    3.8864 C   0  0  0  0  0  0
    4.4440    1.1266    1.6626 C   0  0  0  0  0  0
   -1.6688    7.4958    0.2768 C   0  0  1  0  0  0
    4.0144    0.2215    4.0620 C   0  0  0  0  0  0
   -2.2959    8.7454    0.0883 O   0  0  0  0  0  0
    5.5310    0.2252    4.2132 C   0  0  0  0  0  0
    3.3027   -0.2953    4.9219 O   0  0  0  0  0  0
   -0.0578    3.5186    1.5067 H   0  0  0  0  0  0
    1.7142    4.0378    0.2372 H   0  0  0  0  0  0
    1.1653    4.2829    4.1699 H   0  0  0  0  0  0
   -0.3707    3.5212    3.8872 H   0  0  0  0  0  0
    1.9571    1.9970    1.1080 H   0  0  0  0  0  0
    3.0252    5.5324    2.4996 H   0  0  0  0  0  0
    3.7800    5.2232    0.9583 H   0  0  0  0  0  0
    0.3757    5.7422   -0.1168 H   0  0  0  0  0  0
   -1.7522    4.7918    0.9545 H   0  0  0  0  0  0
   -2.0009    4.9988    2.6678 H   0  0  0  0  0  0
   -0.1413    7.4653    3.1849 H   0  0  0  0  0  0
   -0.2816    6.0022    4.1300 H   0  0  0  0  0  0
    1.2864    6.5019    3.5094 H   0  0  0  0  0  0
    1.3540    1.9007    4.6449 H   0  0  0  0  0  0
    0.7401    1.4849    3.0623 H   0  0  0  0  0  0
    3.9252    2.2686   -0.1418 H   0  0  0  0  0  0
    4.7060    3.2110    1.1300 H   0  0  0  0  0  0
    2.3198    7.4407    1.4648 H   0  0  0  0  0  0
    2.4815    6.7745   -0.1368 H   0  0  0  0  0  0
    0.0231    8.4203    1.2612 H   0  0  0  0  0  0
    0.2549    8.1552   -0.4475 H   0  0  0  0  0  0
   -3.3378    6.6149    1.3352 H   0  0  0  0  0  0
   -2.2092    7.4519    2.3717 H   0  0  0  0  0  0
    2.6643    0.2133    2.4232 H   0  0  0  0  0  0
    3.7694    2.8097    4.8995 H   0  0  0  0  0  0
    4.6635    3.2876    3.4649 H   0  0  0  0  0  0
    3.2579    4.2005    3.9863 H   0  0  0  0  0  0
    4.4452    0.2763    0.9805 H   0  0  0  0  0  0
    5.4626    1.2507    2.0309 H   0  0  0  0  0  0
   -1.8439    6.8862   -0.6103 H   0  0  0  0  0  0
   -1.8119    9.4010    0.5669 H   0  0  0  0  0  0
    5.9511   -0.6968    3.8116 H   0  0  0  0  0  0
    5.9694    1.0688    3.6799 H   0  0  0  0  0  0
    5.8071    0.3016    5.2650 H   0  0  0  0  0  0
  1  2  1  0  0  0
  1  3  1  0  0  0
  1  4  1  0  0  0
  1 24  1  0  0  0
  2  5  1  0  0  0
  2  6  1  0  0  0
  2 25  1  0  0  0
  3  7  1  0  0  0
  3  8  1  0  0  0
  3  9  1  0  0  0
  4 10  1  0  0  0
  4 26  1  0  0  0
  4 27  1  0  0  0
  5 11  1  0  0  0
  5 12  1  0  0  0
  5 28  1  0  0  0
  6 13  1  0  0  0
  6 29  1  0  0  0
  6 30  1  0  0  0
  7 14  1  0  0  0
  7 13  1  0  0  0
  7 31  1  0  0  0
  8 15  1  0  0  0
  8 32  1  0  0  0
  8 33  1  0  0  0
  9 34  1  0  0  0
  9 35  1  0  0  0
  9 36  1  0  0  0
 10 11  1  0  0  0
 10 37  1  0  0  0
 10 38  1  0  0  0
 11 16  1  0  0  0
 11 17  1  0  0  0
 12 18  1  0  0  0
 12 39  1  0  0  0
 12 40  1  0  0  0
 13 41  1  0  0  0
 13 42  1  0  0  0
 14 19  1  0  0  0
 14 43  1  0  0  0
 14 44  1  0  0  0
 15 19  1  0  0  0
 15 45  1  0  0  0
 15 46  1  0  0  0
 16 20  1  0  0  0
 16 18  1  0  0  0
 16 47  1  0  0  0
 17 48  1  0  0  0
 17 49  1  0  0  0
 17 50  1  0  0  0
 18 51  1  0  0  0
 18 52  1  0  0  0
 19 21  1  0  0  0
 19 53  1  0  0  0
 20 22  1  0  0  0
 20 23  2  0  0  0
 21 54  1  0  0  0
 22 55  1  0  0  0
 22 56  1  0  0  0
 22 57  1  0  0  0
M  END
> <i_ionizer_Ion_state_n>
0

> <i_ionizer_Tot_Q>
0

> <s_ionizer_Ion_centers>


> <s_ionizer_Ion_types>


> <s_ionizer_Ion_ctrs_in>


> <r_ionizer_Ionization_penalty>
0

> <r_ionizer_Ionization_penalty_charging>
0

> <r_ionizer_Ionization_penalty_neutral>
0

> <s_st_Chirality_1>
19_R_21_14_15_53

> <s_st_Chirality_2>
1_R_3_2_4_24

> <s_st_Chirality_3>
2_R_5_1_6_25

> <s_st_Chirality_4>
3_R_1_7_8_9

> <s_st_Chirality_5>
5_R_11_2_12_28

> <s_st_Chirality_6>
7_R_3_14_13_31

> <s_st_Chirality_7>
11_R_16_5_10_17

> <s_st_Chirality_8>
16_R_20_11_18_47

> <i_mmod_Serial_Number-OPLS-2005>
722

> <i_i_glide_lignum>
714

> <r_i_docking_score>
-3.76462

> <r_i_glide_gscore>
-3.76462

> <r_i_glide_lipo>
-1.82717

> <r_i_glide_hbond>
-0.28061

> <r_i_glide_metal>
0

> <r_i_glide_eburp>
-1.37497

> <r_i_glide_evdw>
-0.689896

> <r_i_glide_ecoul>
1.43386

> <r_i_glide_erotb>
0

> <r_i_glide_esite>
-0.37007

> <r_i_glide_emodel>
3.28796

> <r_i_glide_energy>
0.743966

> <r_i_glide_einternal>
5.46637

> <i_i_glide_confnum>
1

> <i_i_glide_posenum>
28

$$$$
C00639
                    3D
 Structure written by MMmdl.
 58 58  0  0  1  0            999 V2000
    2.2446    2.1115    2.5662 C   0  0  2  0  0  0
    1.8047    0.6434    2.5017 C   0  0  2  0  0  0
    1.2131    2.7597    3.5143 C   0  0  2  0  0  0
    2.4268    2.7901    1.1918 C   0  0  0  0  0  0
    1.4066    0.3419    3.9519 C   0  0  1  0  0  0
    2.8860   -0.2865    1.9818 C   0  0  0  0  0  0
    0.7934    1.6443    4.4922 C   0  0  0  0  0  0
    0.0646    3.1979    2.8111 O   0  0  0  0  0  0
    3.1130    4.1416    1.3023 C   0  0  0  0  0  0
    0.5082   -0.7455    4.0387 O   0  0  0  0  0  0
    3.9172    0.1081    1.2134 C   0  0  0  0  0  0
    2.5600    5.3193    1.6485 C   0  0  0  0  0  0
    5.0296   -0.7743    0.6658 C   0  0  2  0  0  0
    1.1148    5.5895    2.0282 C   0  0  0  0  0  0
    6.1779    0.0704    0.0849 C   0  0  0  0  0  0
    4.5512   -1.6646   -0.3252 O   0  0  0  0  0  0
    0.4588    6.6083    1.0863 C   0  0  0  0  0  0
    6.9243   -0.6175   -1.0710 C   0  0  0  0  0  0
   -0.9002    7.1068    1.6169 C   0  0  0  0  0  0
    8.4089   -0.2284   -1.1264 C   0  0  0  0  0  0
   -1.8528    5.9695    2.0086 C   0  0  0  0  0  0
    9.1434   -0.5152    0.1912 C   0  0  0  0  0  0
   -1.3690    4.9034    2.4507 O   0  0  0  0  0  0
    8.5507   -1.7091    0.9476 C   0  0  0  0  0  0
    3.2089    2.1378    3.0778 H   0  0  0  0  0  0
    0.9225    0.5704    1.8624 H   0  0  0  0  0  0
    1.6426    3.6139    4.0391 H   0  0  0  0  0  0
    3.0597    2.1648    0.5619 H   0  0  0  0  0  0
    1.4753    2.8556    0.6686 H   0  0  0  0  0  0
    2.2985    0.1049    4.5345 H   0  0  0  0  0  0
    2.7886   -1.3237    2.2670 H   0  0  0  0  0  0
    1.1672    1.8453    5.4968 H   0  0  0  0  0  0
   -0.2932    1.5731    4.5704 H   0  0  0  0  0  0
    0.3374    3.7792    2.1179 H   0  0  0  0  0  0
    4.1679    4.1324    1.0699 H   0  0  0  0  0  0
    0.9442   -1.5231    3.7254 H   0  0  0  0  0  0
    3.9880    1.1523    0.9451 H   0  0  0  0  0  0
    3.2012    6.1886    1.6671 H   0  0  0  0  0  0
    5.4027   -1.3702    1.4995 H   0  0  0  0  0  0
    0.5267    4.6747    2.0479 H   0  0  0  0  0  0
    1.1065    5.9735    3.0486 H   0  0  0  0  0  0
    5.7935    1.0369   -0.2447 H   0  0  0  0  0  0
    6.8954    0.2854    0.8782 H   0  0  0  0  0  0
    3.9607   -2.2789    0.0833 H   0  0  0  0  0  0
    1.1326    7.4554    0.9470 H   0  0  0  0  0  0
    0.3254    6.1519    0.1041 H   0  0  0  0  0  0
    6.8378   -1.6996   -0.9652 H   0  0  0  0  0  0
    6.4520   -0.3608   -2.0198 H   0  0  0  0  0  0
   -0.7480    7.7424    2.4898 H   0  0  0  0  0  0
   -1.3919    7.7202    0.8612 H   0  0  0  0  0  0
    8.8956   -0.7708   -1.9380 H   0  0  0  0  0  0
    8.4977    0.8318   -1.3670 H   0  0  0  0  0  0
   10.1978   -0.7068   -0.0115 H   0  0  0  0  0  0
    9.1075    0.3678    0.8303 H   0  0  0  0  0  0
    9.0921   -1.8877    1.8769 H   0  0  0  0  0  0
    7.5044   -1.5353    1.2005 H   0  0  0  0  0  0
    8.6051   -2.6200    0.3509 H   0  0  0  0  0  0
   -3.0728    6.1943    1.8540 O   0  5  0  0  0  0
  1  2  1  0  0  0
  1  3  1  0  0  0
  1  4  1  0  0  0
  1 25  1  0  0  0
  2  5  1  0  0  0
  2  6  1  0  0  0
  2 26  1  0  0  0
  3  7  1  0  0  0
  3  8  1  0  0  0
  3 27  1  0  0  0
  4  9  1  0  0  0
  4 28  1  0  0  0
  4 29  1  0  0  0
  5 10  1  0  0  0
  5  7  1  0  0  0
  5 30  1  0  0  0
  6 11  2  0  0  0
  6 31  1  0  0  0
  7 32  1  0  0  0
  7 33  1  0  0  0
  8 34  1  0  0  0
  9 12  2  0  0  0
  9 35  1  0  0  0
 10 36  1  0  0  0
 11 13  1  0  0  0
 11 37  1  0  0  0
 12 14  1  0  0  0
 12 38  1  0  0  0
 13 15  1  0  0  0
 13 16  1  0  0  0
 13 39  1  0  0  0
 14 17  1  0  0  0
 14 40  1  0  0  0
 14 41  1  0  0  0
 15 18  1  0  0  0
 15 42  1  0  0  0
 15 43  1  0  0  0
 16 44  1  0  0  0
 17 19  1  0  0  0
 17 45  1  0  0  0
 17 46  1  0  0  0
 18 20  1  0  0  0
 18 47  1  0  0  0
 18 48  1  0  0  0
 19 21  1  0  0  0
 19 49  1  0  0  0
 19 50  1  0  0  0
 20 22  1  0  0  0
 20 51  1  0  0  0
 20 52  1  0  0  0
 21 23  2  0  0  0
 21 58  1  0  0  0
 22 24  1  0  0  0
 22 53  1  0  0  0
 22 54  1  0  0  0
 24 55  1  0  0  0
 24 56  1  0  0  0
 24 57  1  0  0  0
M  CHG  1  58  -1
M  END
> <i_ionizer_Ion_state_n>
1

> <i_ionizer_Tot_Q>
-1

> <s_ionizer_Ion_centers>
58

> <s_ionizer_Ion_types>
OM

> <s_ionizer_Ion_ctrs_in>
23

> <r_ionizer_Ionization_penalty>
0.00059219

> <r_ionizer_Ionization_penalty_charging>
0.00059219

> <r_ionizer_Ionization_penalty_neutral>
0

> <s_st_Chirality_1>
1_R_3_2_4_25

> <s_st_Chirality_2>
2_R_5_1_6_26

> <s_st_Chirality_3>
3_S_8_1_7_27

> <s_st_Chirality_4>
5_R_10_2_7_30

> <s_st_Chirality_5>
13_S_16_11_15_39

> <s_st_EZ_1>
2_6_11_13_E

> <s_st_EZ_2>
4_9_12_14_Z

> <i_mmod_Serial_Number-OPLS-2005>
304

> <i_i_glide_lignum>
302

> <r_i_docking_score>
-3.72685

> <r_i_glide_gscore>
-3.72685

> <r_i_glide_lipo>
-1.73289

> <r_i_glide_hbond>
-0.501429

> <r_i_glide_metal>
0

> <r_i_glide_eburp>
-1.10998

> <r_i_glide_evdw>
-10.3356

> <r_i_glide_ecoul>
-1.0508

> <r_i_glide_erotb>
1.74674

> <r_i_glide_esite>
-1.19736

> <r_i_glide_emodel>
-23.1638

> <r_i_glide_energy>
-11.3864

> <r_i_glide_einternal>
20.684

> <i_i_glide_confnum>
144

> <i_i_glide_posenum>
222

$$$$
C11356
                    3D
 Structure written by MMmdl.
 62 61  0  0  1  0            999 V2000
    1.8476    3.3028    1.5162 O   0  0  0  0  0  0
    1.8932    2.7623    3.1296 P   0  0  0  0  0  0
    1.5773    1.0917    3.0336 O   0  0  0  0  0  0
    0.7771    3.4116    3.8561 O   0  0  0  0  0  0
    1.2442   -0.3051    1.9674 P   0  0  0  0  0  0
    1.9755    0.0795    0.6608 O   0  0  0  0  0  0
    2.3559    4.5735    1.1684 C   0  0  0  0  0  0
    1.9434    4.9620   -0.2390 C   0  0  0  0  0  0
   -6.8368   11.5993    3.8028 C   0  0  0  0  0  0
   -6.7164   11.1773    5.2544 C   0  0  0  0  0  0
   -5.6555   10.4651    5.6867 C   0  0  0  0  0  0
   -5.3687    9.9902    7.1005 C   0  0  0  0  0  0
   -3.9701   10.4174    7.5716 C   0  0  0  0  0  0
   -2.8532    9.8138    6.7330 C   0  0  0  0  0  0
   -3.1330    9.1009    5.6219 C   0  0  0  0  0  0
   -2.1555    8.4542    4.6546 C   0  0  0  0  0  0
   -2.4122    8.9048    3.2077 C   0  0  0  0  0  0
   -1.6711    8.0592    2.1829 C   0  0  0  0  0  0
   -0.7762    7.1283    2.5728 C   0  0  0  0  0  0
    0.0666    6.2228    1.6924 C   0  0  0  0  0  0
    0.4804    6.9306    0.3959 C   0  0  0  0  0  0
    1.1473    5.9902   -0.5961 C   0  0  0  0  0  0
   -7.8729   11.6329    6.1293 C   0  0  0  0  0  0
   -1.4490   10.0939    7.2486 C   0  0  0  0  0  0
   -2.0208    8.3575    0.7325 C   0  0  0  0  0  0
    0.8540    6.2915   -2.0537 C   0  0  0  0  0  0
    2.0487    5.3076    1.9103 H   0  0  0  0  0  0
    3.4447    4.5370    1.2062 H   0  0  0  0  0  0
    2.3578    4.3338   -1.0136 H   0  0  0  0  0  0
   -7.7403   11.1795    3.3601 H   0  0  0  0  0  0
   -6.8914   12.6857    3.7290 H   0  0  0  0  0  0
   -5.9838   11.2629    3.2123 H   0  0  0  0  0  0
   -4.9021   10.1825    4.9655 H   0  0  0  0  0  0
   -5.4922    8.9132    7.1889 H   0  0  0  0  0  0
   -6.1245   10.4273    7.7540 H   0  0  0  0  0  0
   -3.8384   10.1318    8.6163 H   0  0  0  0  0  0
   -3.8813   11.5041    7.5415 H   0  0  0  0  0  0
   -4.1711    8.9565    5.3585 H   0  0  0  0  0  0
   -2.2771    7.3730    4.7280 H   0  0  0  0  0  0
   -1.1249    8.6711    4.9235 H   0  0  0  0  0  0
   -2.1160    9.9468    3.0812 H   0  0  0  0  0  0
   -3.4831    8.8676    3.0014 H   0  0  0  0  0  0
   -0.6129    6.9827    3.6319 H   0  0  0  0  0  0
   -0.5419    5.3501    1.4531 H   0  0  0  0  0  0
    0.9414    5.8408    2.2144 H   0  0  0  0  0  0
    1.1578    7.7559    0.6179 H   0  0  0  0  0  0
   -0.3898    7.3945   -0.0631 H   0  0  0  0  0  0
   -7.8475   12.7162    6.2484 H   0  0  0  0  0  0
   -8.8197   11.3684    5.6578 H   0  0  0  0  0  0
   -7.8745   11.1811    7.1188 H   0  0  0  0  0  0
   -1.1506   11.1124    7.0004 H   0  0  0  0  0  0
   -1.4221    9.9892    8.3334 H   0  0  0  0  0  0
   -0.6997    9.4134    6.8504 H   0  0  0  0  0  0
   -1.5364    9.2778    0.4064 H   0  0  0  0  0  0
   -1.7313    7.5596    0.0517 H   0  0  0  0  0  0
   -3.0983    8.4858    0.6273 H   0  0  0  0  0  0
    1.1773    7.3021   -2.3040 H   0  0  0  0  0  0
    1.3683    5.5971   -2.7188 H   0  0  0  0  0  0
   -0.2161    6.2152   -2.2476 H   0  0  0  0  0  0
    3.2767    2.9412    3.6276 O   0  5  0  0  0  0
    1.8589   -1.4790    2.7623 O   0  5  0  0  0  0
   -0.3001   -0.2916    1.8976 O   0  5  0  0  0  0
  1  2  1  0  0  0
  1  7  1  0  0  0
  2  4  2  0  0  0
  2  3  1  0  0  0
  2 60  1  0  0  0
  3  5  1  0  0  0
  5  6  2  0  0  0
  5 61  1  0  0  0
  5 62  1  0  0  0
  7  8  1  0  0  0
  7 27  1  0  0  0
  7 28  1  0  0  0
  8 22  2  0  0  0
  8 29  1  0  0  0
  9 10  1  0  0  0
  9 30  1  0  0  0
  9 31  1  0  0  0
  9 32  1  0  0  0
 10 11  2  0  0  0
 10 23  1  0  0  0
 11 12  1  0  0  0
 11 33  1  0  0  0
 12 13  1  0  0  0
 12 34  1  0  0  0
 12 35  1  0  0  0
 13 14  1  0  0  0
 13 36  1  0  0  0
 13 37  1  0  0  0
 14 15  2  0  0  0
 14 24  1  0  0  0
 15 16  1  0  0  0
 15 38  1  0  0  0
 16 17  1  0  0  0
 16 39  1  0  0  0
 16 40  1  0  0  0
 17 18  1  0  0  0
 17 41  1  0  0  0
 17 42  1  0  0  0
 18 19  2  0  0  0
 18 25  1  0  0  0
 19 20  1  0  0  0
 19 43  1  0  0  0
 20 21  1  0  0  0
 20 44  1  0  0  0
 20 45  1  0  0  0
 21 22  1  0  0  0
 21 46  1  0  0  0
 21 47  1  0  0  0
 22 26  1  0  0  0
 23 48  1  0  0  0
 23 49  1  0  0  0
 23 50  1  0  0  0
 24 51  1  0  0  0
 24 52  1  0  0  0
 24 53  1  0  0  0
 25 54  1  0  0  0
 25 55  1  0  0  0
 25 56  1  0  0  0
 26 57  1  0  0  0
 26 58  1  0  0  0
 26 59  1  0  0  0
M  CHG  3  60  -1  61  -1  62  -1
M  END
> <i_ionizer_Ion_state_n>
7

> <i_ionizer_Tot_Q>
-3

> <s_ionizer_Ion_centers>
60_61_62

> <s_ionizer_Ion_types>
OM_OM_OM

> <s_ionizer_Ion_ctrs_in>
4_7_8

> <r_ionizer_Ionization_penalty>
2.23767e-05

> <r_ionizer_Ionization_penalty_charging>
2.23767e-05

> <r_ionizer_Ionization_penalty_neutral>
0

> <s_st_EZ_1>
7_8_22_21_Z

> <s_st_EZ_2>
13_14_15_16_E

> <s_st_EZ_3>
17_18_19_20_E

> <i_mmod_Serial_Number-OPLS-2005>
929

> <i_i_glide_lignum>
913

> <r_i_docking_score>
-3.72337

> <r_i_glide_gscore>
-3.72337

> <r_i_glide_lipo>
-1.28321

> <r_i_glide_hbond>
-0.84167

> <r_i_glide_metal>
0

> <r_i_glide_eburp>
-0.398262

> <r_i_glide_evdw>
-26.9607

> <r_i_glide_ecoul>
-7.3531

> <r_i_glide_erotb>
1.4861

> <r_i_glide_esite>
0.205839

> <r_i_glide_emodel>
-69.9208

> <r_i_glide_energy>
-34.3138

> <r_i_glide_einternal>
6.44851

> <i_i_glide_confnum>
599

> <i_i_glide_posenum>
670

$$$$
C06001
                    3D
 Structure written by MMmdl.
 14 13  0  0  1  0            999 V2000
    0.9685    1.4931    3.0073 C   0  0  2  0  0  0
    0.6708    2.9918    3.2299 C   0  0  0  0  0  0
    1.2685    0.7553    4.3340 C   0  0  0  0  0  0
    2.0853    1.2699    1.9663 C   0  0  0  0  0  0
    0.0999    3.3002    4.2999 O   0  0  0  0  0  0
    1.2496   -0.6543    4.2005 O   0  0  0  0  0  0
    0.0562    1.0622    2.5936 H   0  0  0  0  0  0
    2.2501    1.0473    4.7095 H   0  0  0  0  0  0
    0.5487    1.0454    5.0997 H   0  0  0  0  0  0
    3.0344    1.6893    2.3025 H   0  0  0  0  0  0
    2.2410    0.2064    1.7849 H   0  0  0  0  0  0
    1.8373    1.7273    1.0077 H   0  0  0  0  0  0
    1.5895   -1.0365    4.9947 H   0  0  0  0  0  0
    0.9784    3.8046    2.3288 O   0  5  0  0  0  0
  1  2  1  0  0  0
  1  3  1  0  0  0
  1  4  1  0  0  0
  1  7  1  0  0  0
  2  5  2  0  0  0
  2 14  1  0  0  0
  3  6  1  0  0  0
  3  8  1  0  0  0
  3  9  1  0  0  0
  4 10  1  0  0  0
  4 11  1  0  0  0
  4 12  1  0  0  0
  6 13  1  0  0  0
M  CHG  1  14  -1
M  END
> <i_ionizer_Ion_state_n>
1

> <i_ionizer_Tot_Q>
-1

> <s_ionizer_Ion_centers>
14

> <s_ionizer_Ion_types>
OM

> <s_ionizer_Ion_ctrs_in>
5

> <r_ionizer_Ionization_penalty>
0.00059219

> <r_ionizer_Ionization_penalty_charging>
0.00059219

> <r_ionizer_Ionization_penalty_neutral>
0

> <s_st_Chirality_1>
1_S_2_3_4_7

> <i_mmod_Serial_Number-OPLS-2005>
846

> <i_i_glide_lignum>
834

> <r_i_docking_score>
-3.7029

> <r_i_glide_gscore>
-3.7029

> <r_i_glide_lipo>
-0.258487

> <r_i_glide_hbond>
-0.7

> <r_i_glide_metal>
0

> <r_i_glide_eburp>
-2.5

> <r_i_glide_evdw>
-10.4593

> <r_i_glide_ecoul>
-4.91248

> <r_i_glide_erotb>
1.33721

> <r_i_glide_esite>
-0.253623

> <r_i_glide_emodel>
-30.9409

> <r_i_glide_energy>
-15.3718

> <r_i_glide_einternal>
0.490848

> <i_i_glide_confnum>
1

> <i_i_glide_posenum>
211

$$$$
C05338
                    3D
 Structure written by MMmdl.
 96 99  0  0  1  0            999 V2000
    0.0755    8.9890   16.2410 N   0  0  0  0  0  0
   -0.1754   10.4541   16.3894 C   0  0  1  0  0  0
    0.3952    8.1231   17.2628 C   0  0  0  0  0  0
    0.0602    8.2097   15.1029 C   0  0  0  0  0  0
    0.5136   11.2242   15.2599 C   0  0  1  0  0  0
   -1.5533   10.6683   16.2630 O   0  0  0  0  0  0
    0.5520    6.8479   16.6552 C   0  0  0  0  0  0
    0.5405    8.4003   18.5918 N   0  0  0  0  0  0
    0.3293    6.9441   15.2882 N   0  0  0  0  0  0
   -0.5070   12.3095   14.9807 C   0  0  1  0  0  0
    1.7342   11.8303   15.6274 O   0  0  0  0  0  0
   -1.8342   11.5857   15.2032 C   0  0  1  0  0  0
    0.8891    5.7861   17.5315 C   0  0  0  0  0  0
    0.8583    7.3061   19.2893 C   0  0  0  0  0  0
   -0.3842   13.3269   15.9677 O   0  0  0  0  0  0
   -2.3427   10.7958   13.9817 C   0  0  0  0  0  0
    1.0345    6.0551   18.8501 N   0  0  0  0  0  0
    1.0716    4.5257   17.1162 N   0  0  0  0  0  0
   -0.8416   14.9737   15.4348 P   0  0  0  0  0  0
   -3.4625   10.0006   14.3206 O   0  0  0  0  0  0
    0.2336   15.2838   14.3666 O   0  0  0  0  0  0
   -4.1227    8.8772   13.2182 P   0  0  0  0  0  0
   -4.5188    9.7778   11.8278 O   0  0  0  0  0  0
   -3.0651    7.9048   12.8568 O   0  0  0  0  0  0
   -3.6781   10.6601   10.6402 P   0  0  0  0  0  0
   -4.8977   11.0234    9.5182 O   0  0  0  0  0  0
   -3.2041   11.9335   11.2278 O   0  0  0  0  0  0
   -4.6419   11.8322    8.3853 C   0  0  0  0  0  0
   -5.8451   11.8482    7.4062 C   0  0  0  0  0  0
   -6.0797   10.4030    6.8391 C   0  0  2  0  0  0
   -7.0986   12.3902    8.1319 C   0  0  0  0  0  0
   -5.5089   12.8184    6.2524 C   0  0  0  0  0  0
   -4.8523    9.7584    6.1644 C   0  0  0  0  0  0
   -7.1967   10.3245    5.9671 O   0  0  0  0  0  0
   -4.4099   10.3212    5.0255 N   0  0  0  0  0  0
   -4.3255    8.7660    6.6683 O   0  0  0  0  0  0
   -3.1785    9.9686    4.3318 C   0  0  0  0  0  0
   -3.3638    8.6990    3.4799 C   0  0  0  0  0  0
   -2.1456    8.3835    2.6077 C   0  0  0  0  0  0
   -2.2544    7.3217    1.7964 N   0  0  0  0  0  0
   -1.1311    9.0782    2.6718 O   0  0  0  0  0  0
   -1.2301    6.9048    0.8487 C   0  0  0  0  0  0
   -0.1740    6.0347    1.5392 C   0  0  0  0  0  0
    1.3534    5.9497    0.5595 S   0  0  0  0  0  0
    2.2609    4.7350    1.5484 C   0  0  0  0  0  0
    1.8532    3.2781    1.3361 C   0  0  0  0  0  0
    3.1499    5.0396    2.3425 O   0  0  0  0  0  0
    2.7646    2.3254    2.0893 C   0  0  0  0  0  0
    3.9294    1.8196    1.4735 C   0  0  0  0  0  0
    2.4506    1.9394    3.4099 C   0  0  0  0  0  0
    4.7744    0.9370    2.1742 C   0  0  0  0  0  0
    3.2957    1.0568    4.1104 C   0  0  0  0  0  0
    4.4584    0.5550    3.4927 C   0  0  0  0  0  0
    5.2794   -0.2998    4.1687 O   0  0  0  0  0  0
    0.1601   10.7246   17.3915 H   0  0  0  0  0  0
   -0.1590    8.6061   14.1232 H   0  0  0  0  0  0
    0.6438   10.5792   14.3897 H   0  0  0  0  0  0
   -0.4301   12.7182   13.9765 H   0  0  0  0  0  0
    1.5444   12.3883   16.3701 H   0  0  0  0  0  0
   -2.6123   12.2768   15.5296 H   0  0  0  0  0  0
    0.9909    7.4522   20.3512 H   0  0  0  0  0  0
   -2.5802   11.4472   13.1417 H   0  0  0  0  0  0
   -1.5502   10.1254   13.6490 H   0  0  0  0  0  0
    1.3126    3.8066   17.7819 H   0  0  0  0  0  0
    0.9729    4.3051   16.1356 H   0  0  0  0  0  0
   -4.3931   12.8492    8.6921 H   0  0  0  0  0  0
   -3.7406   11.4341    7.9234 H   0  0  0  0  0  0
   -6.3448    9.7567    7.6770 H   0  0  0  0  0  0
   -7.4417   11.7026    8.8982 H   0  0  0  0  0  0
   -7.9317   12.5502    7.4475 H   0  0  0  0  0  0
   -6.9077   13.3499    8.6119 H   0  0  0  0  0  0
   -6.3284   12.9051    5.5391 H   0  0  0  0  0  0
   -5.3028   13.8218    6.6270 H   0  0  0  0  0  0
   -4.6256   12.4920    5.7026 H   0  0  0  0  0  0
   -7.0246   10.8308    5.1788 H   0  0  0  0  0  0
   -4.9738   11.0560    4.6101 H   0  0  0  0  0  0
   -2.9044   10.8114    3.6960 H   0  0  0  0  0  0
   -2.3669    9.8428    5.0509 H   0  0  0  0  0  0
   -3.5576    7.8400    4.1230 H   0  0  0  0  0  0
   -4.2409    8.8165    2.8412 H   0  0  0  0  0  0
   -3.1012    6.7731    1.8371 H   0  0  0  0  0  0
   -1.6973    6.3502    0.0333 H   0  0  0  0  0  0
   -0.7596    7.7872    0.4119 H   0  0  0  0  0  0
    0.0583    6.4418    2.5243 H   0  0  0  0  0  0
   -0.5591    5.0246    1.6853 H   0  0  0  0  0  0
    0.8239    3.1383    1.6688 H   0  0  0  0  0  0
    1.8692    3.0463    0.2705 H   0  0  0  0  0  0
    4.1801    2.1094    0.4635 H   0  0  0  0  0  0
    1.5617    2.3225    3.8898 H   0  0  0  0  0  0
    5.6654    0.5542    1.6983 H   0  0  0  0  0  0
    3.0475    0.7686    5.1214 H   0  0  0  0  0  0
    4.8207   -0.8381    4.7952 H   0  0  0  0  0  0
   -2.2740   14.7509   14.9060 O   0  5  0  0  0  0
   -0.7203   15.7657   16.7545 O   0  5  0  0  0  0
   -5.3886    8.3738   13.7983 O   0  5  0  0  0  0
   -2.7075    9.7524    9.9856 O   0  5  0  0  0  0
  1  2  1  0  0  0
  1  3  1  0  0  0
  1  4  1  0  0  0
  2  5  1  0  0  0
  2  6  1  0  0  0
  2 55  1  0  0  0
  3  7  2  0  0  0
  3  8  1  0  0  0
  4  9  2  0  0  0
  4 56  1  0  0  0
  5 10  1  0  0  0
  5 11  1  0  0  0
  5 57  1  0  0  0
  6 12  1  0  0  0
  7 13  1  0  0  0
  7  9  1  0  0  0
  8 14  2  0  0  0
 10 15  1  0  0  0
 10 12  1  0  0  0
 10 58  1  0  0  0
 11 59  1  0  0  0
 12 16  1  0  0  0
 12 60  1  0  0  0
 13 17  2  0  0  0
 13 18  1  0  0  0
 14 17  1  0  0  0
 14 61  1  0  0  0
 15 19  1  0  0  0
 16 20  1  0  0  0
 16 62  1  0  0  0
 16 63  1  0  0  0
 18 64  1  0  0  0
 18 65  1  0  0  0
 19 21  2  0  0  0
 19 93  1  0  0  0
 19 94  1  0  0  0
 20 22  1  0  0  0
 22 23  1  0  0  0
 22 24  2  0  0  0
 22 95  1  0  0  0
 23 25  1  0  0  0
 25 26  1  0  0  0
 25 27  2  0  0  0
 25 96  1  0  0  0
 26 28  1  0  0  0
 28 29  1  0  0  0
 28 66  1  0  0  0
 28 67  1  0  0  0
 29 30  1  0  0  0
 29 31  1  0  0  0
 29 32  1  0  0  0
 30 33  1  0  0  0
 30 34  1  0  0  0
 30 68  1  0  0  0
 31 69  1  0  0  0
 31 70  1  0  0  0
 31 71  1  0  0  0
 32 72  1  0  0  0
 32 73  1  0  0  0
 32 74  1  0  0  0
 33 35  1  0  0  0
 33 36  2  0  0  0
 34 75  1  0  0  0
 35 37  1  0  0  0
 35 76  1  0  0  0
 37 38  1  0  0  0
 37 77  1  0  0  0
 37 78  1  0  0  0
 38 39  1  0  0  0
 38 79  1  0  0  0
 38 80  1  0  0  0
 39 40  1  0  0  0
 39 41  2  0  0  0
 40 42  1  0  0  0
 40 81  1  0  0  0
 42 43  1  0  0  0
 42 82  1  0  0  0
 42 83  1  0  0  0
 43 44  1  0  0  0
 43 84  1  0  0  0
 43 85  1  0  0  0
 44 45  1  0  0  0
 45 46  1  0  0  0
 45 47  2  0  0  0
 46 48  1  0  0  0
 46 86  1  0  0  0
 46 87  1  0  0  0
 48 49  1  0  0  0
 48 50  2  0  0  0
 49 51  2  0  0  0
 49 88  1  0  0  0
 50 52  1  0  0  0
 50 89  1  0  0  0
 51 53  1  0  0  0
 51 90  1  0  0  0
 52 53  2  0  0  0
 52 91  1  0  0  0
 53 54  1  0  0  0
 54 92  1  0  0  0
M  CHG  4  93  -1  94  -1  95  -1  96  -1
M  END
> <i_ionizer_Ion_state_n>
30

> <i_ionizer_Tot_Q>
-4

> <s_ionizer_Ion_centers>
93_94_95_96

> <s_ionizer_Ion_types>
OM_OM_OM_OM

> <s_ionizer_Ion_ctrs_in>
21_22_26_30

> <r_ionizer_Ionization_penalty>
0.000640761

> <r_ionizer_Ionization_penalty_charging>
2.98356e-05

> <r_ionizer_Ionization_penalty_neutral>
0.000610925

> <s_st_Chirality_1>
2_R_6_1_5_55

> <s_st_Chirality_2>
5_R_11_2_10_57

> <s_st_Chirality_3>
10_R_15_5_12_58

> <s_st_Chirality_4>
12_R_6_10_16_60

> <s_st_Chirality_5>
30_R_34_33_29_68

> <i_mmod_Serial_Number-OPLS-2005>
674

> <i_i_glide_lignum>
667

> <r_i_docking_score>
-3.69532

> <r_i_glide_gscore>
-3.69532

> <r_i_glide_lipo>
-0.987721

> <r_i_glide_hbond>
-0.95

> <r_i_glide_metal>
0

> <r_i_glide_eburp>
0

> <r_i_glide_evdw>
-33.7557

> <r_i_glide_ecoul>
-1.16277

> <r_i_glide_erotb>
0.470464

> <r_i_glide_esite>
0.588669

> <r_i_glide_emodel>
-41.949

> <r_i_glide_energy>
-34.9185

> <r_i_glide_einternal>
6.16083

> <i_i_glide_confnum>
871

> <i_i_glide_posenum>
40

$$$$
C06144
                    3D
 Structure written by MMmdl.
 11 10  0  0  1  0            999 V2000
    0.4898    2.2329    2.6980 C   0  0  0  0  0  0
   -0.1898    3.5221    3.1687 C   0  0  0  0  0  0
    1.2594    1.5055    3.7853 C   0  0  0  0  0  0
    0.4633    4.2997    3.8999 O   0  0  0  0  0  0
    1.1227    0.2020    4.0730 C   0  0  0  0  0  0
   -0.2657    1.5615    2.2901 H   0  0  0  0  0  0
    1.1693    2.4765    1.8800 H   0  0  0  0  0  0
    1.9724    2.0974    4.3405 H   0  0  0  0  0  0
    1.7082   -0.2579    4.8553 H   0  0  0  0  0  0
    0.4266   -0.4215    3.5314 H   0  0  0  0  0  0
   -1.3711    3.6997    2.7993 O   0  5  0  0  0  0
  1  2  1  0  0  0
  1  3  1  0  0  0
  1  6  1  0  0  0
  1  7  1  0  0  0
  2  4  2  0  0  0
  2 11  1  0  0  0
  3  5  2  0  0  0
  3  8  1  0  0  0
  5  9  1  0  0  0
  5 10  1  0  0  0
M  CHG  1  11  -1
M  END
> <i_ionizer_Ion_state_n>
1

> <i_ionizer_Tot_Q>
-1

> <s_ionizer_Ion_centers>
11

> <s_ionizer_Ion_types>
OM

> <s_ionizer_Ion_ctrs_in>
4

> <r_ionizer_Ionization_penalty>
0.00059219

> <r_ionizer_Ionization_penalty_charging>
0.00059219

> <r_ionizer_Ionization_penalty_neutral>
0

> <i_mmod_Serial_Number-OPLS-2005>
858

> <i_i_glide_lignum>
846

> <r_i_docking_score>
-3.68688

> <r_i_glide_gscore>
-3.68688

> <r_i_glide_lipo>
-0.280354

> <r_i_glide_hbond>
-1.33935

> <r_i_glide_metal>
0

> <r_i_glide_eburp>
-2.9

> <r_i_glide_evdw>
-6.97764

> <r_i_glide_ecoul>
-3.31177

> <r_i_glide_erotb>
1.77806

> <r_i_glide_esite>
-0.0558534

> <r_i_glide_emodel>
-31.2015

> <r_i_glide_energy>
-10.2894

> <r_i_glide_einternal>
0.363993

> <i_i_glide_confnum>
2

> <i_i_glide_posenum>
423

$$$$
C03492
                    3D
 Structure written by MMmdl.
 34 33  0  0  1  0            999 V2000
    2.7121   -0.4476    2.6848 C   0  0  2  0  0  0
    2.3418    0.6685    3.7215 C   0  0  0  0  0  0
    3.5665    0.0164    1.4894 C   0  0  0  0  0  0
    1.5488   -1.0841    2.1857 O   0  0  0  0  0  0
    1.5847    1.8015    2.9814 C   0  0  0  0  0  0
    1.3960    0.0913    4.8017 C   0  0  0  0  0  0
    3.5905    1.2552    4.4198 C   0  0  0  0  0  0
    4.2194   -0.9434    0.8172 N   0  0  0  0  0  0
    3.6092    1.2040    1.1660 O   0  0  0  0  0  0
    1.0135    2.7259    3.8954 O   0  0  0  0  0  0
    5.2646   -0.6972   -0.1672 C   0  0  0  0  0  0
    0.4949    4.2890    3.1902 P   0  0  0  0  0  0
    6.6439   -0.6436    0.5166 C   0  0  0  0  0  0
    0.8998    5.2966    4.2892 O   0  0  0  0  0  0
    7.7844   -0.3072   -0.4524 C   0  0  0  0  0  0
    8.0349   -1.1014   -1.3863 O   0  0  0  0  0  0
    3.2735   -1.2228    3.2094 H   0  0  0  0  0  0
    0.9673   -1.2556    2.9100 H   0  0  0  0  0  0
    2.2510    2.3140    2.2862 H   0  0  0  0  0  0
    0.7745    1.3909    2.3785 H   0  0  0  0  0  0
    1.0696    0.8625    5.5001 H   0  0  0  0  0  0
    0.5011   -0.3422    4.3544 H   0  0  0  0  0  0
    1.8775   -0.6840    5.3978 H   0  0  0  0  0  0
    3.3157    2.0535    5.1098 H   0  0  0  0  0  0
    4.1266    0.5080    5.0036 H   0  0  0  0  0  0
    4.2898    1.6813    3.7002 H   0  0  0  0  0  0
    3.9809   -1.9064    1.0032 H   0  0  0  0  0  0
    5.2418   -1.4897   -0.9175 H   0  0  0  0  0  0
    5.0575    0.2436   -0.6806 H   0  0  0  0  0  0
    6.6380    0.1031    1.3114 H   0  0  0  0  0  0
    6.8658   -1.6035    0.9844 H   0  0  0  0  0  0
    1.3225    4.3381    1.8861 O   0  5  0  0  0  0
   -1.0224    4.0584    3.0154 O   0  5  0  0  0  0
    8.3960    0.7612   -0.2346 O   0  5  0  0  0  0
  1  2  1  0  0  0
  1  3  1  0  0  0
  1  4  1  0  0  0
  1 17  1  0  0  0
  2  5  1  0  0  0
  2  6  1  0  0  0
  2  7  1  0  0  0
  3  8  1  0  0  0
  3  9  2  0  0  0
  4 18  1  0  0  0
  5 10  1  0  0  0
  5 19  1  0  0  0
  5 20  1  0  0  0
  6 21  1  0  0  0
  6 22  1  0  0  0
  6 23  1  0  0  0
  7 24  1  0  0  0
  7 25  1  0  0  0
  7 26  1  0  0  0
  8 11  1  0  0  0
  8 27  1  0  0  0
 10 12  1  0  0  0
 11 13  1  0  0  0
 11 28  1  0  0  0
 11 29  1  0  0  0
 12 14  2  0  0  0
 12 32  1  0  0  0
 12 33  1  0  0  0
 13 15  1  0  0  0
 13 30  1  0  0  0
 13 31  1  0  0  0
 15 16  2  0  0  0
 15 34  1  0  0  0
M  CHG  3  32  -1  33  -1  34  -1
M  END
> <i_ionizer_Ion_state_n>
7

> <i_ionizer_Tot_Q>
-3

> <s_ionizer_Ion_centers>
32_33_34

> <s_ionizer_Ion_types>
OM_OM_OM

> <s_ionizer_Ion_ctrs_in>
14_15_18

> <r_ionizer_Ionization_penalty>
0.000607108

> <r_ionizer_Ionization_penalty_charging>
0.000607108

> <r_ionizer_Ionization_penalty_neutral>
0

> <s_st_Chirality_1>
1_R_4_3_2_17

> <i_mmod_Serial_Number-OPLS-2005>
550

> <i_i_glide_lignum>
544

> <r_i_docking_score>
-3.67088

> <r_i_glide_gscore>
-3.67088

> <r_i_glide_lipo>
-0.710858

> <r_i_glide_hbond>
-1.16922

> <r_i_glide_metal>
0

> <r_i_glide_eburp>
-1.54397

> <r_i_glide_evdw>
-23.3361

> <r_i_glide_ecoul>
-6.52133

> <r_i_glide_erotb>
3.3404

> <r_i_glide_esite>
-1.0682

> <r_i_glide_emodel>
-73.4866

> <r_i_glide_energy>
-29.8574

> <r_i_glide_einternal>
5.72208

> <i_i_glide_confnum>
9

> <i_i_glide_posenum>
750

$$$$
C00532
                    3D
 Structure written by MMmdl.
 22 21  0  0  1  0            999 V2000
    2.9767    0.8135    4.2688 C   0  0  0  0  0  0
    4.4052    0.6948    3.6776 C   0  0  2  0  0  0
    1.8443    0.9222    3.2144 C   0  0  2  0  0  0
    2.7083   -0.3009    5.1000 O   0  0  0  0  0  0
    5.5004    1.1215    4.6766 C   0  0  0  0  0  0
    4.5010    1.5474    2.5523 O   0  0  0  0  0  0
    1.7771   -0.2987    2.2746 C   0  0  0  0  0  0
    2.0223    2.0985    2.4454 O   0  0  0  0  0  0
    5.3014    0.4999    5.9301 O   0  0  0  0  0  0
    1.7003   -1.4979    3.0187 O   0  0  0  0  0  0
    2.9425    1.7011    4.9025 H   0  0  0  0  0  0
    4.5839   -0.3320    3.3549 H   0  0  0  0  0  0
    0.8905    1.0043    3.7372 H   0  0  0  0  0  0
    3.5269   -0.7436    5.2695 H   0  0  0  0  0  0
    6.4979    0.8914    4.2997 H   0  0  0  0  0  0
    5.4659    2.1980    4.8451 H   0  0  0  0  0  0
    3.8646    1.2711    1.9108 H   0  0  0  0  0  0
    0.9299   -0.2323    1.5908 H   0  0  0  0  0  0
    2.6781   -0.3513    1.6625 H   0  0  0  0  0  0
    2.8418    2.0306    1.9796 H   0  0  0  0  0  0
    5.1681   -0.4251    5.7921 H   0  0  0  0  0  0
    2.4304   -1.5298    3.6177 H   0  0  0  0  0  0
  1  2  1  0  0  0
  1  3  1  0  0  0
  1  4  1  0  0  0
  1 11  1  0  0  0
  2  5  1  0  0  0
  2  6  1  0  0  0
  2 12  1  0  0  0
  3  7  1  0  0  0
  3  8  1  0  0  0
  3 13  1  0  0  0
  4 14  1  0  0  0
  5  9  1  0  0  0
  5 15  1  0  0  0
  5 16  1  0  0  0
  6 17  1  0  0  0
  7 10  1  0  0  0
  7 18  1  0  0  0
  7 19  1  0  0  0
  8 20  1  0  0  0
  9 21  1  0  0  0
 10 22  1  0  0  0
M  END
> <i_ionizer_Ion_state_n>
0

> <i_ionizer_Tot_Q>
0

> <s_ionizer_Ion_centers>


> <s_ionizer_Ion_types>


> <s_ionizer_Ion_ctrs_in>


> <r_ionizer_Ionization_penalty>
0

> <r_ionizer_Ionization_penalty_charging>
0

> <r_ionizer_Ionization_penalty_neutral>
0

> <s_st_Chirality_1>
2_S_6_1_5_12

> <s_st_Chirality_2>
3_S_8_1_7_13

> <i_mmod_Serial_Number-OPLS-2005>
272

> <i_i_glide_lignum>
270

> <r_i_docking_score>
-3.66236

> <r_i_glide_gscore>
-3.66236

> <r_i_glide_lipo>
-0.465171

> <r_i_glide_hbond>
-1.19215

> <r_i_glide_metal>
0

> <r_i_glide_eburp>
-2.5

> <r_i_glide_evdw>
-13.6219

> <r_i_glide_ecoul>
-12.831

> <r_i_glide_erotb>
2.91941

> <r_i_glide_esite>
-0.0515931

> <r_i_glide_emodel>
-31.2413

> <r_i_glide_energy>
-26.4529

> <r_i_glide_einternal>
3.84013

> <i_i_glide_confnum>
1

> <i_i_glide_posenum>
42

$$$$
C00315
                    3D
 Structure written by MMmdl.
 32 31  0  0  1  0            999 V2000
    0.8496    3.8959    2.7777 C   0  0  0  0  0  0
    2.1226    3.0543    2.9525 C   0  0  0  0  0  0
   -0.0651    5.9778    1.7937 C   0  0  0  0  0  0
    1.8627    1.7370    3.7006 C   0  0  0  0  0  0
    0.2009    7.0757    0.7517 C   0  0  0  0  0  0
    3.1582    0.9829    4.0369 C   0  0  0  0  0  0
   -1.0500    7.9161    0.4491 C   0  0  0  0  0  0
    0.0729    3.3009    2.2950 H   0  0  0  0  0  0
    0.4651    4.1970    3.7534 H   0  0  0  0  0  0
    2.5507    2.8348    1.9733 H   0  0  0  0  0  0
    2.8710    3.6351    3.4938 H   0  0  0  0  0  0
   -0.9195    5.3725    1.4872 H   0  0  0  0  0  0
   -0.3188    6.4294    2.7540 H   0  0  0  0  0  0
    1.3144    1.9465    4.6204 H   0  0  0  0  0  0
    1.2173    1.0993    3.0947 H   0  0  0  0  0  0
    0.9989    7.7285    1.1088 H   0  0  0  0  0  0
    0.5633    6.6194   -0.1709 H   0  0  0  0  0  0
    3.7293    0.7860    3.1288 H   0  0  0  0  0  0
    3.7901    1.5864    4.6895 H   0  0  0  0  0  0
   -0.9299    8.4483   -0.4953 H   0  0  0  0  0  0
   -1.9239    7.2718    0.3455 H   0  0  0  0  0  0
    3.7485   -0.7694    4.9125 H   0  0  0  0  0  0
    2.3769   -0.1325    5.5665 H   0  0  0  0  0  0
   -2.1407    9.4334    1.2827 H   0  0  0  0  0  0
   -1.4619    8.4230    2.3920 H   0  0  0  0  0  0
    1.1122    5.1018    1.9662 N   0  3  0  0  0  0
    1.8472    5.6330    2.4117 H   0  0  0  0  0  0
    1.4333    4.8094    1.0540 H   0  0  0  0  0  0
    2.8782   -0.2997    4.7056 N   0  3  0  0  0  0
    2.3198   -0.8845    4.1001 H   0  0  0  0  0  0
   -1.3140    8.9003    1.5140 N   0  3  0  0  0  0
   -0.5279    9.5287    1.6019 H   0  0  0  0  0  0
  1  2  1  0  0  0
  1  8  1  0  0  0
  1  9  1  0  0  0
  1 26  1  0  0  0
  2  4  1  0  0  0
  2 10  1  0  0  0
  2 11  1  0  0  0
  3  5  1  0  0  0
  3 12  1  0  0  0
  3 13  1  0  0  0
  3 26  1  0  0  0
  4  6  1  0  0  0
  4 14  1  0  0  0
  4 15  1  0  0  0
  5  7  1  0  0  0
  5 16  1  0  0  0
  5 17  1  0  0  0
  6 18  1  0  0  0
  6 19  1  0  0  0
  6 29  1  0  0  0
  7 20  1  0  0  0
  7 21  1  0  0  0
  7 31  1  0  0  0
 22 29  1  0  0  0
 23 29  1  0  0  0
 24 31  1  0  0  0
 25 31  1  0  0  0
 26 27  1  0  0  0
 26 28  1  0  0  0
 29 30  1  0  0  0
 31 32  1  0  0  0
M  CHG  3  26   1  29   1  31   1
M  END
> <i_ionizer_Ion_state_n>
7

> <i_ionizer_Tot_Q>
3

> <s_ionizer_Ion_centers>
26_29_31

> <s_ionizer_Ion_types>
N5_N5_N5

> <s_ionizer_Ion_ctrs_in>
2_9_10

> <r_ionizer_Ionization_penalty>
0.000433907

> <r_ionizer_Ionization_penalty_charging>
0.000433907

> <r_ionizer_Ionization_penalty_neutral>
0

> <i_mmod_Serial_Number-OPLS-2005>
188

> <i_i_glide_lignum>
186

> <r_i_docking_score>
-3.64552

> <r_i_glide_gscore>
-3.64552

> <r_i_glide_lipo>
-0.577493

> <r_i_glide_hbond>
-1.95468

> <r_i_glide_metal>
0

> <r_i_glide_eburp>
-2.9

> <r_i_glide_evdw>
-11.5539

> <r_i_glide_ecoul>
-15.6124

> <r_i_glide_erotb>
3.80307

> <r_i_glide_esite>
0.469142

> <r_i_glide_emodel>
-56.7134

> <r_i_glide_energy>
-27.1663

> <r_i_glide_einternal>
2.70773

> <i_i_glide_confnum>
5

> <i_i_glide_posenum>
249

$$$$
C00062
                    3D
 Structure written by MMmdl.
 27 26  0  0  1  0            999 V2000
    2.9805    1.4380    2.5920 C   0  0  0  0  0  0
    3.2512    0.7760    1.2270 C   0  0  0  0  0  0
    2.9211    0.4521    3.7824 C   0  0  1  0  0  0
    4.4615   -0.1665    1.2575 C   0  0  0  0  0  0
    1.7411   -0.5250    3.6940 C   0  0  0  0  0  0
    4.9507   -0.4441   -0.0999 N   0  0  0  0  0  0
    0.9006   -0.4970    4.6206 O   0  0  0  0  0  0
    6.2006   -0.8184   -0.4228 C   0  0  0  0  0  0
    6.5011   -1.0628   -1.7046 N   0  0  0  0  0  0
    3.7455    2.1935    2.7787 H   0  0  0  0  0  0
    2.0342    1.9779    2.5372 H   0  0  0  0  0  0
    2.3747    0.2133    0.9030 H   0  0  0  0  0  0
    3.4137    1.5508    0.4765 H   0  0  0  0  0  0
    2.8221    1.0351    4.7000 H   0  0  0  0  0  0
    5.2686    0.2757    1.8426 H   0  0  0  0  0  0
    4.1921   -1.1098    1.7340 H   0  0  0  0  0  0
    4.1330   -0.8942    4.7186 H   0  0  0  0  0  0
    4.2977   -0.8745    3.0806 H   0  0  0  0  0  0
    4.2698   -0.3476   -0.8399 H   0  0  0  0  0  0
    7.4341   -1.3457   -1.9674 H   0  0  0  0  0  0
    5.7964   -0.9677   -2.4218 H   0  0  0  0  0  0
    8.0882   -1.2349    0.2597 H   0  0  0  0  0  0
    4.1816   -0.3001    3.9033 N   0  3  0  0  0  0
    4.9580    0.3392    3.9905 H   0  0  0  0  0  0
    1.6986   -1.2823    2.7003 O   0  5  0  0  0  0
    7.1523   -0.9526    0.5123 N   0  3  0  0  0  0
    6.9345   -0.7724    1.4815 H   0  0  0  0  0  0
  1  2  1  0  0  0
  1  3  1  0  0  0
  1 10  1  0  0  0
  1 11  1  0  0  0
  2  4  1  0  0  0
  2 12  1  0  0  0
  2 13  1  0  0  0
  3  5  1  0  0  0
  3 14  1  0  0  0
  3 23  1  0  0  0
  4  6  1  0  0  0
  4 15  1  0  0  0
  4 16  1  0  0  0
  5  7  2  0  0  0
  5 25  1  0  0  0
  6  8  1  0  0  0
  6 19  1  0  0  0
  8  9  1  0  0  0
  8 26  2  0  0  0
  9 20  1  0  0  0
  9 21  1  0  0  0
 17 23  1  0  0  0
 18 23  1  0  0  0
 22 26  1  0  0  0
 23 24  1  0  0  0
 26 27  1  0  0  0
M  CHG  3  23   1  25  -1  26   1
M  END
> <i_ionizer_Ion_state_n>
7

> <i_ionizer_Tot_Q>
1

> <s_ionizer_Ion_centers>
23_25_26

> <s_ionizer_Ion_types>
N5_OM_N4

> <s_ionizer_Ion_ctrs_in>
6_8_12

> <r_ionizer_Ionization_penalty>
0.000781394

> <r_ionizer_Ionization_penalty_charging>
0.000781394

> <r_ionizer_Ionization_penalty_neutral>
0

> <s_st_Chirality_1>
3_S_23_5_1_14

> <i_mmod_Serial_Number-OPLS-2005>
43

> <i_i_glide_lignum>
42

> <r_i_docking_score>
-3.64458

> <r_i_glide_gscore>
-3.64458

> <r_i_glide_lipo>
-0.422011

> <r_i_glide_hbond>
-1.66387

> <r_i_glide_metal>
0

> <r_i_glide_eburp>
-2.46051

> <r_i_glide_evdw>
-12.6251

> <r_i_glide_ecoul>
-11.3091

> <r_i_glide_erotb>
2.90333

> <r_i_glide_esite>
0.1394

> <r_i_glide_emodel>
-53.3342

> <r_i_glide_energy>
-23.9342

> <r_i_glide_einternal>
4.52027

> <i_i_glide_confnum>
12

> <i_i_glide_posenum>
697

$$$$
C00024
                    3D
 Structure written by MMmdl.
 85 87  0  0  1  0            999 V2000
   -0.9172   10.8288   13.7475 N   0  0  0  0  0  0
   -1.9678    9.7779   13.9535 C   0  0  2  0  0  0
    0.2574   10.9778   14.4580 C   0  0  0  0  0  0
   -0.8501   11.7863   12.7564 C   0  0  0  0  0  0
   -2.4482    9.4086   12.6902 O   0  0  0  0  0  0
   -3.1696   10.3311   14.7356 C   0  0  1  0  0  0
    0.9329   12.0789   13.8642 C   0  0  0  0  0  0
    0.7121   10.2450   15.5167 N   0  0  0  0  0  0
    0.2002   12.5612   12.7912 N   0  0  0  0  0  0
   -3.8092    9.8059   12.5089 C   0  0  1  0  0  0
   -4.3421    9.7822   13.9473 C   0  0  1  0  0  0
   -3.2776    9.8592   16.0621 O   0  0  0  0  0  0
    2.1693   12.4389   14.4551 C   0  0  0  0  0  0
    1.8877   10.6952   15.9631 C   0  0  0  0  0  0
   -3.9087   11.2042   11.8576 C   0  0  0  0  0  0
   -4.5787    8.4387   14.3592 O   0  0  0  0  0  0
    2.6178   11.7195   15.5099 N   0  0  0  0  0  0
    2.9178   13.4586   14.0146 N   0  0  0  0  0  0
   -5.2423   11.6715   11.7418 O   0  0  0  0  0  0
   -5.9927    7.5931   13.6438 P   0  0  0  0  0  0
   -5.6624   13.0851   10.8869 P   0  0  0  0  0  0
   -7.0994    7.7830   14.7058 O   0  0  0  0  0  0
   -5.3412   12.6274    9.2783 O   0  0  0  0  0  0
   -7.1135   13.3282   11.0447 O   0  0  0  0  0  0
   -5.9420   11.4652    8.1882 P   0  0  0  0  0  0
   -5.1245   11.8068    6.7324 O   0  0  0  0  0  0
   -5.5414   10.1176    8.6533 O   0  0  0  0  0  0
   -3.8988   11.1847    6.3883 C   0  0  0  0  0  0
   -4.1043   10.0443    5.3591 C   0  0  0  0  0  0
   -2.6959    9.5314    4.9018 C   0  0  2  0  0  0
   -4.9589    8.9197    5.9887 C   0  0  0  0  0  0
   -4.8727   10.6336    4.1522 C   0  0  0  0  0  0
   -2.7106    8.3393    3.9261 C   0  0  0  0  0  0
   -1.8949    9.1900    6.0192 O   0  0  0  0  0  0
   -1.5472    8.0494    3.3246 N   0  0  0  0  0  0
   -3.7368    7.6837    3.7424 O   0  0  0  0  0  0
   -1.3327    6.8978    2.4590 C   0  0  0  0  0  0
   -0.1486    6.0553    2.9648 C   0  0  0  0  0  0
   -0.3646    4.5471    2.8029 C   0  0  0  0  0  0
    0.7424    3.7914    2.7779 N   0  0  0  0  0  0
   -1.4985    4.0788    2.6987 O   0  0  0  0  0  0
    0.7440    2.3443    2.6124 C   0  0  0  0  0  0
    1.4574    1.6645    3.7864 C   0  0  0  0  0  0
    3.2586    1.8737    3.6744 S   0  0  0  0  0  0
    3.6063    0.6660    2.3735 C   0  0  0  0  0  0
    3.1821   -0.7638    2.6856 C   0  0  0  0  0  0
    4.1454    0.9563    1.3066 O   0  0  0  0  0  0
   -1.4522    8.9470   14.4359 H   0  0  0  0  0  0
   -1.6084   11.8971   11.9969 H   0  0  0  0  0  0
   -3.1695   11.4217   14.7065 H   0  0  0  0  0  0
   -4.3311    9.0868   11.8785 H   0  0  0  0  0  0
   -5.2374   10.3868   14.0955 H   0  0  0  0  0  0
   -3.2666    8.9126   16.0049 H   0  0  0  0  0  0
    2.3021   10.1606   16.8051 H   0  0  0  0  0  0
   -3.3977   11.9342   12.4852 H   0  0  0  0  0  0
   -3.4110   11.2355   10.8885 H   0  0  0  0  0  0
    3.7928   13.6755   14.4677 H   0  0  0  0  0  0
    2.5854   14.0201   13.2431 H   0  0  0  0  0  0
   -3.2408   11.9528    5.9809 H   0  0  0  0  0  0
   -3.4107   10.8116    7.2896 H   0  0  0  0  0  0
   -2.1803   10.3561    4.4063 H   0  0  0  0  0  0
   -5.1651    8.1150    5.2843 H   0  0  0  0  0  0
   -4.4694    8.4830    6.8595 H   0  0  0  0  0  0
   -5.9256    9.2987    6.3211 H   0  0  0  0  0  0
   -5.0990    9.8777    3.4001 H   0  0  0  0  0  0
   -5.8270   11.0639    4.4577 H   0  0  0  0  0  0
   -4.3010   11.4247    3.6661 H   0  0  0  0  0  0
   -1.7175    9.9748    6.5139 H   0  0  0  0  0  0
   -0.7659    8.6720    3.4701 H   0  0  0  0  0  0
   -2.2429    6.2958    2.4320 H   0  0  0  0  0  0
   -1.1443    7.2463    1.4417 H   0  0  0  0  0  0
    0.7603    6.3311    2.4287 H   0  0  0  0  0  0
    0.0288    6.2730    4.0193 H   0  0  0  0  0  0
    1.6376    4.2476    2.8792 H   0  0  0  0  0  0
   -0.2848    1.9871    2.5424 H   0  0  0  0  0  0
    1.2397    2.0878    1.6746 H   0  0  0  0  0  0
    1.1090    2.0869    4.7299 H   0  0  0  0  0  0
    1.2238    0.5990    3.7990 H   0  0  0  0  0  0
    3.4174   -1.4282    1.8536 H   0  0  0  0  0  0
    3.7005   -1.1271    3.5730 H   0  0  0  0  0  0
    2.1083   -0.8087    2.8682 H   0  0  0  0  0  0
   -6.1808    8.3684   12.3219 O   0  5  0  0  0  0
   -5.4413    6.1570   13.5047 O   0  5  0  0  0  0
   -4.7009   14.1405   11.2776 O   0  5  0  0  0  0
   -7.3778   11.7530    7.9675 O   0  5  0  0  0  0
  1  2  1  0  0  0
  1  3  1  0  0  0
  1  4  1  0  0  0
  2  5  1  0  0  0
  2  6  1  0  0  0
  2 48  1  0  0  0
  3  7  2  0  0  0
  3  8  1  0  0  0
  4  9  2  0  0  0
  4 49  1  0  0  0
  5 10  1  0  0  0
  6 11  1  0  0  0
  6 12  1  0  0  0
  6 50  1  0  0  0
  7 13  1  0  0  0
  7  9  1  0  0  0
  8 14  2  0  0  0
 10 15  1  0  0  0
 10 11  1  0  0  0
 10 51  1  0  0  0
 11 16  1  0  0  0
 11 52  1  0  0  0
 12 53  1  0  0  0
 13 17  2  0  0  0
 13 18  1  0  0  0
 14 17  1  0  0  0
 14 54  1  0  0  0
 15 19  1  0  0  0
 15 55  1  0  0  0
 15 56  1  0  0  0
 16 20  1  0  0  0
 18 57  1  0  0  0
 18 58  1  0  0  0
 19 21  1  0  0  0
 20 22  2  0  0  0
 20 82  1  0  0  0
 20 83  1  0  0  0
 21 23  1  0  0  0
 21 24  2  0  0  0
 21 84  1  0  0  0
 23 25  1  0  0  0
 25 26  1  0  0  0
 25 27  2  0  0  0
 25 85  1  0  0  0
 26 28  1  0  0  0
 28 29  1  0  0  0
 28 59  1  0  0  0
 28 60  1  0  0  0
 29 30  1  0  0  0
 29 31  1  0  0  0
 29 32  1  0  0  0
 30 33  1  0  0  0
 30 34  1  0  0  0
 30 61  1  0  0  0
 31 62  1  0  0  0
 31 63  1  0  0  0
 31 64  1  0  0  0
 32 65  1  0  0  0
 32 66  1  0  0  0
 32 67  1  0  0  0
 33 35  1  0  0  0
 33 36  2  0  0  0
 34 68  1  0  0  0
 35 37  1  0  0  0
 35 69  1  0  0  0
 37 38  1  0  0  0
 37 70  1  0  0  0
 37 71  1  0  0  0
 38 39  1  0  0  0
 38 72  1  0  0  0
 38 73  1  0  0  0
 39 40  1  0  0  0
 39 41  2  0  0  0
 40 42  1  0  0  0
 40 74  1  0  0  0
 42 43  1  0  0  0
 42 75  1  0  0  0
 42 76  1  0  0  0
 43 44  1  0  0  0
 43 77  1  0  0  0
 43 78  1  0  0  0
 44 45  1  0  0  0
 45 46  1  0  0  0
 45 47  2  0  0  0
 46 79  1  0  0  0
 46 80  1  0  0  0
 46 81  1  0  0  0
M  CHG  4  82  -1  83  -1  84  -1  85  -1
M  END
> <i_ionizer_Ion_state_n>
30

> <i_ionizer_Tot_Q>
-4

> <s_ionizer_Ion_centers>
82_83_84_85

> <s_ionizer_Ion_types>
OM_OM_OM_OM

> <s_ionizer_Ion_ctrs_in>
22_23_26_30

> <r_ionizer_Ionization_penalty>
4.85714e-05

> <r_ionizer_Ionization_penalty_charging>
2.98356e-05

> <r_ionizer_Ionization_penalty_neutral>
1.87357e-05

> <s_st_Chirality_1>
2_R_5_1_6_48

> <s_st_Chirality_2>
6_R_12_2_11_50

> <s_st_Chirality_3>
10_R_5_11_15_51

> <s_st_Chirality_4>
11_R_16_6_10_52

> <s_st_Chirality_5>
30_R_34_33_29_61

> <i_mmod_Serial_Number-OPLS-2005>
19

> <i_i_glide_lignum>
19

> <r_i_docking_score>
-3.63771

> <r_i_glide_gscore>
-3.63771

> <r_i_glide_lipo>
-0.738121

> <r_i_glide_hbond>
-0.744639

> <r_i_glide_metal>
0

> <r_i_glide_eburp>
0

> <r_i_glide_evdw>
-40.9047

> <r_i_glide_ecoul>
-1.74863

> <r_i_glide_erotb>
0.53312

> <r_i_glide_esite>
0.759163

> <r_i_glide_emodel>
-51.6663

> <r_i_glide_energy>
-42.6533

> <r_i_glide_einternal>
15.6623

> <i_i_glide_confnum>
635

> <i_i_glide_posenum>
581

$$$$
C00751
                    3D
 Structure written by MMmdl.
 80 79  0  0  1  0            999 V2000
    2.8177    4.4483    2.1153 C   0  0  0  0  0  0
    1.7570    5.1518    1.6685 C   0  0  0  0  0  0
    2.6263    3.1561    2.8948 C   0  0  0  0  0  0
    4.2675    4.8530    1.8934 C   0  0  0  0  0  0
    1.7747    6.4340    0.8552 C   0  0  0  0  0  0
    1.1651    2.6817    2.9169 C   0  0  0  0  0  0
    0.5505    6.5405   -0.0668 C   0  0  0  0  0  0
    0.9973    1.4160    3.7395 C   0  0  0  0  0  0
   -0.5819    7.3516    0.5446 C   0  0  0  0  0  0
    0.8393    0.1542    3.2895 C   0  0  0  0  0  0
   -0.4729    7.8685    1.7857 C   0  0  0  0  0  0
   -1.8056    7.5146   -0.3448 C   0  0  0  0  0  0
    0.8216   -0.2511    1.8246 C   0  0  0  0  0  0
    0.6538   -1.0025    4.2525 C   0  0  0  0  0  0
   -1.5156    8.6680    2.5466 C   0  0  0  0  0  0
   -1.8896    7.9988    3.8749 C   0  0  0  0  0  0
   -3.1800    8.5596    4.4454 C   0  0  0  0  0  0
   -3.3388    9.2409    5.5988 C   0  0  0  0  0  0
   -4.7149    9.7090    6.0469 C   0  0  0  0  0  0
   -2.2017    9.5992    6.5440 C   0  0  0  0  0  0
   -5.8063    9.4421    4.9992 C   0  0  0  0  0  0
   -7.0838   10.2011    5.3119 C   0  0  0  0  0  0
   -7.6360   11.2081    4.6042 C   0  0  0  0  0  0
   -8.9475   11.8427    5.0418 C   0  0  0  0  0  0
   -7.0338   11.7950    3.3363 C   0  0  0  0  0  0
  -10.0038   11.8597    3.9265 C   0  0  0  0  0  0
  -11.3544   12.3290    4.4388 C   0  0  0  0  0  0
  -12.5682   11.8046    4.1713 C   0  0  0  0  0  0
  -12.8178   10.5898    3.2924 C   0  0  0  0  0  0
  -13.8295   12.4183    4.7477 C   0  0  0  0  0  0
    0.7660    4.7870    1.8973 H   0  0  0  0  0  0
    3.2623    2.3863    2.4557 H   0  0  0  0  0  0
    2.9776    3.2915    3.9188 H   0  0  0  0  0  0
    4.3805    5.9026    1.6285 H   0  0  0  0  0  0
    4.8435    4.6948    2.8054 H   0  0  0  0  0  0
    4.7138    4.2504    1.1023 H   0  0  0  0  0  0
    1.8488    7.3069    1.5005 H   0  0  0  0  0  0
    2.6862    6.4322    0.2566 H   0  0  0  0  0  0
    0.5366    3.4516    3.3657 H   0  0  0  0  0  0
    0.7886    2.5487    1.9053 H   0  0  0  0  0  0
    0.8505    6.9887   -1.0153 H   0  0  0  0  0  0
    0.1761    5.5447   -0.3073 H   0  0  0  0  0  0
    1.0109    1.5792    4.8075 H   0  0  0  0  0  0
    0.4484    7.7128    2.3283 H   0  0  0  0  0  0
   -2.4503    8.3348   -0.0343 H   0  0  0  0  0  0
   -1.4977    7.7266   -1.3689 H   0  0  0  0  0  0
   -2.3960    6.5985   -0.3513 H   0  0  0  0  0  0
   -0.1799   -0.5720    1.5375 H   0  0  0  0  0  0
    1.1317    0.5432    1.1491 H   0  0  0  0  0  0
    1.5018   -1.0880    1.6642 H   0  0  0  0  0  0
    1.4536   -1.7325    4.1260 H   0  0  0  0  0  0
    0.6621   -0.6691    5.2908 H   0  0  0  0  0  0
   -0.2979   -1.5005    4.0651 H   0  0  0  0  0  0
   -1.1824    9.6895    2.7220 H   0  0  0  0  0  0
   -2.3984    8.7511    1.9118 H   0  0  0  0  0  0
   -2.0313    6.9282    3.7237 H   0  0  0  0  0  0
   -1.0690    8.0893    4.5846 H   0  0  0  0  0  0
   -4.0516    8.3737    3.8344 H   0  0  0  0  0  0
   -4.9648    9.2141    6.9862 H   0  0  0  0  0  0
   -4.6832   10.7774    6.2660 H   0  0  0  0  0  0
   -2.2110    8.9441    7.4151 H   0  0  0  0  0  0
   -1.2215    9.5318    6.0760 H   0  0  0  0  0  0
   -2.3147   10.6264    6.8915 H   0  0  0  0  0  0
   -5.4359    9.6768    4.0030 H   0  0  0  0  0  0
   -6.0564    8.3812    4.9786 H   0  0  0  0  0  0
   -7.5849    9.8706    6.2104 H   0  0  0  0  0  0
   -9.3449   11.3025    5.9025 H   0  0  0  0  0  0
   -8.7472   12.8578    5.3870 H   0  0  0  0  0  0
   -5.9800   11.5532    3.2130 H   0  0  0  0  0  0
   -7.5720   11.4363    2.4590 H   0  0  0  0  0  0
   -7.1067   12.8826    3.3571 H   0  0  0  0  0  0
   -9.7025   12.5457    3.1346 H   0  0  0  0  0  0
  -10.0684   10.8799    3.4580 H   0  0  0  0  0  0
  -11.3028   13.1873    5.0932 H   0  0  0  0  0  0
  -13.3234   10.8903    2.3746 H   0  0  0  0  0  0
  -11.9112   10.0535    3.0213 H   0  0  0  0  0  0
  -13.4618    9.8819    3.8147 H   0  0  0  0  0  0
  -14.4983   12.7301    3.9451 H   0  0  0  0  0  0
  -14.3544   11.6919    5.3687 H   0  0  0  0  0  0
  -13.6096   13.2916    5.3626 H   0  0  0  0  0  0
  1  2  2  0  0  0
  1  3  1  0  0  0
  1  4  1  0  0  0
  2  5  1  0  0  0
  2 31  1  0  0  0
  3  6  1  0  0  0
  3 32  1  0  0  0
  3 33  1  0  0  0
  4 34  1  0  0  0
  4 35  1  0  0  0
  4 36  1  0  0  0
  5  7  1  0  0  0
  5 37  1  0  0  0
  5 38  1  0  0  0
  6  8  1  0  0  0
  6 39  1  0  0  0
  6 40  1  0  0  0
  7  9  1  0  0  0
  7 41  1  0  0  0
  7 42  1  0  0  0
  8 10  2  0  0  0
  8 43  1  0  0  0
  9 11  2  0  0  0
  9 12  1  0  0  0
 10 13  1  0  0  0
 10 14  1  0  0  0
 11 15  1  0  0  0
 11 44  1  0  0  0
 12 45  1  0  0  0
 12 46  1  0  0  0
 12 47  1  0  0  0
 13 48  1  0  0  0
 13 49  1  0  0  0
 13 50  1  0  0  0
 14 51  1  0  0  0
 14 52  1  0  0  0
 14 53  1  0  0  0
 15 16  1  0  0  0
 15 54  1  0  0  0
 15 55  1  0  0  0
 16 17  1  0  0  0
 16 56  1  0  0  0
 16 57  1  0  0  0
 17 18  2  0  0  0
 17 58  1  0  0  0
 18 19  1  0  0  0
 18 20  1  0  0  0
 19 21  1  0  0  0
 19 59  1  0  0  0
 19 60  1  0  0  0
 20 61  1  0  0  0
 20 62  1  0  0  0
 20 63  1  0  0  0
 21 22  1  0  0  0
 21 64  1  0  0  0
 21 65  1  0  0  0
 22 23  2  0  0  0
 22 66  1  0  0  0
 23 24  1  0  0  0
 23 25  1  0  0  0
 24 26  1  0  0  0
 24 67  1  0  0  0
 24 68  1  0  0  0
 25 69  1  0  0  0
 25 70  1  0  0  0
 25 71  1  0  0  0
 26 27  1  0  0  0
 26 72  1  0  0  0
 26 73  1  0  0  0
 27 28  2  0  0  0
 27 74  1  0  0  0
 28 29  1  0  0  0
 28 30  1  0  0  0
 29 75  1  0  0  0
 29 76  1  0  0  0
 29 77  1  0  0  0
 30 78  1  0  0  0
 30 79  1  0  0  0
 30 80  1  0  0  0
M  END
> <i_ionizer_Ion_state_n>
0

> <i_ionizer_Tot_Q>
0

> <s_ionizer_Ion_centers>


> <s_ionizer_Ion_types>


> <s_ionizer_Ion_ctrs_in>


> <r_ionizer_Ionization_penalty>
0

> <r_ionizer_Ionization_penalty_charging>
0

> <r_ionizer_Ionization_penalty_neutral>
0

> <s_st_EZ_1>
3_1_2_5_E

> <s_st_EZ_2>
7_9_11_15_E

> <s_st_EZ_3>
16_17_18_19_E

> <s_st_EZ_4>
21_22_23_24_E

> <i_mmod_Serial_Number-OPLS-2005>
329

> <i_i_glide_lignum>
326

> <r_i_docking_score>
-3.63616

> <r_i_glide_gscore>
-3.63616

> <r_i_glide_lipo>
-1.99034

> <r_i_glide_hbond>
0

> <r_i_glide_metal>
0

> <r_i_glide_eburp>
-0.676265

> <r_i_glide_evdw>
-31.6616

> <r_i_glide_ecoul>
0.687484

> <r_i_glide_erotb>
2.00215

> <r_i_glide_esite>
-0.507515

> <r_i_glide_emodel>
-41.2482

> <r_i_glide_energy>
-30.9741

> <r_i_glide_einternal>
7.51915

> <i_i_glide_confnum>
221

> <i_i_glide_posenum>
494

$$$$
C01096
                    3D
 Structure written by MMmdl.
 29 28  0  0  1  0            999 V2000
    2.1148   -0.0974    2.7680 C   0  0  1  0  0  0
    3.5538   -0.3881    2.2470 C   0  0  1  0  0  0
    1.9006    1.3610    3.2466 C   0  0  1  0  0  0
    1.1201   -0.4495    1.8236 O   0  0  0  0  0  0
    3.8755    0.0249    0.7856 C   0  0  1  0  0  0
    4.5636    0.0978    3.1109 O   0  0  0  0  0  0
    0.5012    1.6725    3.8291 C   0  0  0  0  0  0
    2.8530    1.6467    4.2504 O   0  0  0  0  0  0
    5.1577   -0.6359    0.2451 C   0  0  0  0  0  0
    2.8183   -0.2991   -0.0964 O   0  0  0  0  0  0
    0.4011    3.0082    4.2999 O   0  0  0  0  0  0
    6.2614   -0.3006    1.0620 O   0  0  0  0  0  0
    0.1659    4.2971    3.0686 P   0  0  0  0  0  0
    0.4968    5.5641    3.8875 O   0  0  0  0  0  0
    1.9615   -0.7436    3.6326 H   0  0  0  0  0  0
    3.6830   -1.4708    2.2781 H   0  0  0  0  0  0
    2.1341    2.0190    2.4120 H   0  0  0  0  0  0
    1.2411    0.0937    1.0599 H   0  0  0  0  0  0
    4.0108    1.1077    0.7651 H   0  0  0  0  0  0
    4.5061   -0.3767    3.9369 H   0  0  0  0  0  0
   -0.2851    1.5141    3.0932 H   0  0  0  0  0  0
    0.2642    0.9925    4.6479 H   0  0  0  0  0  0
    3.6994    1.3877    3.9159 H   0  0  0  0  0  0
    5.0593   -1.7219    0.2518 H   0  0  0  0  0  0
    5.3598   -0.3378   -0.7844 H   0  0  0  0  0  0
    3.1610   -0.2986   -0.9770 H   0  0  0  0  0  0
    6.1410   -0.7002    1.9102 H   0  0  0  0  0  0
    1.1883    3.9219    1.9702 O   0  5  0  0  0  0
   -1.3202    4.1009    2.6992 O   0  5  0  0  0  0
  1  2  1  0  0  0
  1  3  1  0  0  0
  1  4  1  0  0  0
  1 15  1  0  0  0
  2  5  1  0  0  0
  2  6  1  0  0  0
  2 16  1  0  0  0
  3  7  1  0  0  0
  3  8  1  0  0  0
  3 17  1  0  0  0
  4 18  1  0  0  0
  5  9  1  0  0  0
  5 10  1  0  0  0
  5 19  1  0  0  0
  6 20  1  0  0  0
  7 11  1  0  0  0
  7 21  1  0  0  0
  7 22  1  0  0  0
  8 23  1  0  0  0
  9 12  1  0  0  0
  9 24  1  0  0  0
  9 25  1  0  0  0
 10 26  1  0  0  0
 11 13  1  0  0  0
 12 27  1  0  0  0
 13 14  2  0  0  0
 13 28  1  0  0  0
 13 29  1  0  0  0
M  CHG  2  28  -1  29  -1
M  END
> <i_ionizer_Ion_state_n>
3

> <i_ionizer_Tot_Q>
-2

> <s_ionizer_Ion_centers>
28_29

> <s_ionizer_Ion_types>
OM_OM

> <s_ionizer_Ion_ctrs_in>
14_15

> <r_ionizer_Ionization_penalty>
1.49178e-05

> <r_ionizer_Ionization_penalty_charging>
1.49178e-05

> <r_ionizer_Ionization_penalty_neutral>
0

> <s_st_Chirality_1>
1_R_4_2_3_15

> <s_st_Chirality_2>
2_R_6_1_5_16

> <s_st_Chirality_3>
3_R_8_1_7_17

> <s_st_Chirality_4>
5_R_10_2_9_19

> <i_mmod_Serial_Number-OPLS-2005>
391

> <i_i_glide_lignum>
387

> <r_i_docking_score>
-3.62324

> <r_i_glide_gscore>
-3.62324

> <r_i_glide_lipo>
-0.58763

> <r_i_glide_hbond>
-1.6932

> <r_i_glide_metal>
0

> <r_i_glide_eburp>
-2.21713

> <r_i_glide_evdw>
-18.7221

> <r_i_glide_ecoul>
-12.8543

> <r_i_glide_erotb>
3.58644

> <r_i_glide_esite>
0.0714736

> <r_i_glide_emodel>
-63.9566

> <r_i_glide_energy>
-31.5764

> <r_i_glide_einternal>
8.34654

> <i_i_glide_confnum>
17

> <i_i_glide_posenum>
703

$$$$
C02538
                    3D
 Structure written by MMmdl.
 45 48  0  0  1  0            999 V2000
    2.4984    1.9754    3.2635 C   0  0  2  0  0  0
    3.0617    3.4366    3.1545 C   0  0  2  0  0  0
    3.3318    1.0135    2.3869 C   0  0  2  0  0  0
    0.9753    1.8308    3.0535 C   0  0  0  0  0  0
    2.0810    4.4549    2.5546 C   0  0  0  0  0  0
    4.5010    3.4634    2.5638 C   0  0  0  0  0  0
    3.7075    1.5742    1.0036 C   0  0  1  0  0  0
    2.8733   -0.4307    2.1568 C   0  0  0  0  0  0
    0.2045    3.0650    3.5194 C   0  0  0  0  0  0
    0.6933    4.2828    2.7684 C   0  0  0  0  0  0
    2.5223    5.5861    1.8276 C   0  0  0  0  0  0
    4.6238    2.8110    1.1656 C   0  0  0  0  0  0
    4.3732    0.3324    0.4177 C   0  0  0  0  0  0
    2.5033    1.9199    0.1032 C   0  0  0  0  0  0
    3.8272   -0.9411    1.0617 C   0  0  0  0  0  0
   -0.2329    5.2170    2.2632 C   0  0  0  0  0  0
    1.5956    6.5175    1.3212 C   0  0  0  0  0  0
    5.2271    0.3463   -0.4672 O   0  0  0  0  0  0
    0.2170    6.3399    1.5435 C   0  0  0  0  0  0
   -0.6822    7.2410    1.0420 O   0  0  0  0  0  0
   -2.2727    7.1298    1.6016 S   0  0  0  0  0  0
   -3.0258    8.0160    0.6998 O   0  0  0  0  0  0
   -2.1719    7.6112    2.9878 O   0  0  0  0  0  0
    2.6797    1.6664    4.2934 H   0  0  0  0  0  0
    3.1646    3.7858    4.1823 H   0  0  0  0  0  0
    4.2728    0.9041    2.9301 H   0  0  0  0  0  0
    0.7509    1.6694    2.0008 H   0  0  0  0  0  0
    0.6148    0.9449    3.5765 H   0  0  0  0  0  0
    4.9223    4.4675    2.5638 H   0  0  0  0  0  0
    5.1407    2.9000    3.2435 H   0  0  0  0  0  0
    2.9369   -1.0273    3.0669 H   0  0  0  0  0  0
    1.8432   -0.4638    1.8017 H   0  0  0  0  0  0
   -0.8637    2.9278    3.3499 H   0  0  0  0  0  0
    0.3461    3.2238    4.5887 H   0  0  0  0  0  0
    3.5699    5.7655    1.6464 H   0  0  0  0  0  0
    4.3721    3.5495    0.4039 H   0  0  0  0  0  0
    5.6673    2.5476    0.9904 H   0  0  0  0  0  0
    1.8217    1.0759   -0.0054 H   0  0  0  0  0  0
    1.9326    2.7590    0.4971 H   0  0  0  0  0  0
    2.8360    2.2021   -0.8962 H   0  0  0  0  0  0
    4.6540   -1.5059    1.4927 H   0  0  0  0  0  0
    3.3155   -1.5694    0.3327 H   0  0  0  0  0  0
   -1.2917    5.0773    2.4257 H   0  0  0  0  0  0
    1.9434    7.3772    0.7675 H   0  0  0  0  0  0
   -2.5918    5.6991    1.4726 O   0  5  0  0  0  0
  1  2  1  0  0  0
  1  3  1  0  0  0
  1  4  1  0  0  0
  1 24  1  0  0  0
  2  5  1  0  0  0
  2  6  1  0  0  0
  2 25  1  0  0  0
  3  7  1  0  0  0
  3  8  1  0  0  0
  3 26  1  0  0  0
  4  9  1  0  0  0
  4 27  1  0  0  0
  4 28  1  0  0  0
  5 10  2  0  0  0
  5 11  1  0  0  0
  6 12  1  0  0  0
  6 29  1  0  0  0
  6 30  1  0  0  0
  7 13  1  0  0  0
  7 14  1  0  0  0
  7 12  1  0  0  0
  8 15  1  0  0  0
  8 31  1  0  0  0
  8 32  1  0  0  0
  9 10  1  0  0  0
  9 33  1  0  0  0
  9 34  1  0  0  0
 10 16  1  0  0  0
 11 17  2  0  0  0
 11 35  1  0  0  0
 12 36  1  0  0  0
 12 37  1  0  0  0
 13 18  2  0  0  0
 13 15  1  0  0  0
 14 38  1  0  0  0
 14 39  1  0  0  0
 14 40  1  0  0  0
 15 41  1  0  0  0
 15 42  1  0  0  0
 16 19  2  0  0  0
 16 43  1  0  0  0
 17 19  1  0  0  0
 17 44  1  0  0  0
 19 20  1  0  0  0
 20 21  1  0  0  0
 21 22  2  0  0  0
 21 23  2  0  0  0
 21 45  1  0  0  0
M  CHG  1  45  -1
M  END
> <i_ionizer_Ion_state_n>
1

> <i_ionizer_Tot_Q>
-1

> <s_ionizer_Ion_centers>
45

> <s_ionizer_Ion_types>
OM

> <s_ionizer_Ion_ctrs_in>
22

> <r_ionizer_Ionization_penalty>
5.92486e-10

> <r_ionizer_Ionization_penalty_charging>
5.92486e-10

> <r_ionizer_Ionization_penalty_neutral>
0

> <s_st_Chirality_1>
1_R_3_2_4_24

> <s_st_Chirality_2>
2_R_5_1_6_25

> <s_st_Chirality_3>
3_R_7_1_8_26

> <s_st_Chirality_4>
7_R_13_3_12_14

> <i_mmod_Serial_Number-OPLS-2005>
497

> <i_i_glide_lignum>
492

> <r_i_docking_score>
-3.60245

> <r_i_glide_gscore>
-3.60245

> <r_i_glide_lipo>
-1.53284

> <r_i_glide_hbond>
0

> <r_i_glide_metal>
0

> <r_i_glide_eburp>
-1.14069

> <r_i_glide_evdw>
-11.5848

> <r_i_glide_ecoul>
5.31067

> <r_i_glide_erotb>
0.178294

> <r_i_glide_esite>
-0.7115

> <r_i_glide_emodel>
-8.32488

> <r_i_glide_energy>
-6.2741

> <r_i_glide_einternal>
2.85851

> <i_i_glide_confnum>
5

> <i_i_glide_posenum>
7

$$$$
C00035
                    3D
 Structure written by MMmdl.
 40 42  0  0  1  0            999 V2000
    1.4539    4.8498    2.3566 N   0  0  0  0  0  0
    0.4950    5.6887    1.8305 C   0  0  0  0  0  0
    2.9304    4.9790    2.1625 C   0  0  2  0  0  0
    0.7497    3.9182    3.0852 C   0  0  0  0  0  0
   -0.7257    5.2092    2.2619 C   0  0  0  0  0  0
    0.7095    6.7844    1.0382 N   0  0  0  0  0  0
    3.3058    4.0851    1.1545 O   0  0  0  0  0  0
    3.6522    4.5650    3.4511 C   0  0  1  0  0  0
   -0.5440    4.0824    3.0558 N   0  0  0  0  0  0
   -1.9304    5.8839    1.8680 C   0  0  0  0  0  0
   -0.3977    7.4068    0.6770 C   0  0  0  0  0  0
    4.2335    3.1243    1.6539 C   0  0  1  0  0  0
    3.9892    3.1120    3.1624 C   0  0  1  0  0  0
    4.8069    5.3544    3.6677 O   0  0  0  0  0  0
   -1.6725    6.9971    1.0588 N   0  0  0  0  0  0
   -3.0928    5.6016    2.1507 O   0  0  0  0  0  0
   -0.3147    8.4943   -0.0993 N   0  0  0  0  0  0
    4.0127    1.7720    0.9676 C   0  0  0  0  0  0
    5.1042    2.6481    3.9007 O   0  0  0  0  0  0
    2.6261    1.5302    0.8460 O   0  0  0  0  0  0
    1.9837   -0.0222    1.1021 P   0  0  0  0  0  0
    1.1347    0.1026    2.5731 O   0  0  0  0  0  0
    1.0193   -0.2997    0.0131 O   0  0  0  0  0  0
    1.2460    0.1991    4.3558 P   0  0  0  0  0  0
    0.5050   -1.0804    4.8047 O   0  0  0  0  0  0
    3.0880    6.0168    1.8663 H   0  0  0  0  0  0
    1.2180    3.1149    3.6367 H   0  0  0  0  0  0
    3.0005    4.6670    4.3202 H   0  0  0  0  0  0
    5.2397    3.4924    1.4460 H   0  0  0  0  0  0
    3.1242    2.4929    3.3951 H   0  0  0  0  0  0
    5.2618    5.4197    2.8406 H   0  0  0  0  0  0
   -2.4758    7.5204    0.7456 H   0  0  0  0  0  0
    0.5942    8.8209   -0.3942 H   0  0  0  0  0  0
   -1.1458    8.9884   -0.3885 H   0  0  0  0  0  0
    4.4783    1.7574   -0.0171 H   0  0  0  0  0  0
    4.4692    0.9705    1.5486 H   0  0  0  0  0  0
    5.7771    3.3129    3.8437 H   0  0  0  0  0  0
    3.1243   -0.9437    1.3090 O   0  5  0  0  0  0
    2.7720    0.2076    4.5972 O   0  5  0  0  0  0
    0.5129    1.5279    4.6490 O   0  5  0  0  0  0
  1  2  1  0  0  0
  1  3  1  0  0  0
  1  4  1  0  0  0
  2  5  2  0  0  0
  2  6  1  0  0  0
  3  7  1  0  0  0
  3  8  1  0  0  0
  3 26  1  0  0  0
  4  9  2  0  0  0
  4 27  1  0  0  0
  5 10  1  0  0  0
  5  9  1  0  0  0
  6 11  2  0  0  0
  7 12  1  0  0  0
  8 13  1  0  0  0
  8 14  1  0  0  0
  8 28  1  0  0  0
 10 15  1  0  0  0
 10 16  2  0  0  0
 11 17  1  0  0  0
 11 15  1  0  0  0
 12 18  1  0  0  0
 12 13  1  0  0  0
 12 29  1  0  0  0
 13 19  1  0  0  0
 13 30  1  0  0  0
 14 31  1  0  0  0
 15 32  1  0  0  0
 17 33  1  0  0  0
 17 34  1  0  0  0
 18 20  1  0  0  0
 18 35  1  0  0  0
 18 36  1  0  0  0
 19 37  1  0  0  0
 20 21  1  0  0  0
 21 22  1  0  0  0
 21 23  2  0  0  0
 21 38  1  0  0  0
 22 24  1  0  0  0
 24 25  2  0  0  0
 24 39  1  0  0  0
 24 40  1  0  0  0
M  CHG  3  38  -1  39  -1  40  -1
M  END
> <i_ionizer_Ion_state_n>
14

> <i_ionizer_Tot_Q>
-3

> <s_ionizer_Ion_centers>
38_39_40

> <s_ionizer_Ion_types>
OM_OM_OM

> <s_ionizer_Ion_ctrs_in>
23_26_27

> <r_ionizer_Ionization_penalty>
4.11125e-05

> <r_ionizer_Ionization_penalty_charging>
2.23767e-05

> <r_ionizer_Ionization_penalty_neutral>
1.87357e-05

> <s_st_Chirality_1>
3_R_7_1_8_26

> <s_st_Chirality_2>
8_R_14_3_13_28

> <s_st_Chirality_3>
12_R_7_13_18_29

> <s_st_Chirality_4>
13_R_19_8_12_30

> <i_mmod_Serial_Number-OPLS-2005>
25

> <i_i_glide_lignum>
25

> <r_i_docking_score>
-3.60072

> <r_i_glide_gscore>
-3.60072

> <r_i_glide_lipo>
-0.503694

> <r_i_glide_hbond>
-0.645266

> <r_i_glide_metal>
0

> <r_i_glide_eburp>
-0.453169

> <r_i_glide_evdw>
-21.8176

> <r_i_glide_ecoul>
-6.77896

> <r_i_glide_erotb>
0.588784

> <r_i_glide_esite>
-0.164065

> <r_i_glide_emodel>
-60.5971

> <r_i_glide_energy>
-28.5966

> <r_i_glide_einternal>
5.98097

> <i_i_glide_confnum>
197

> <i_i_glide_posenum>
347

$$$$
C00300
                    3D
 Structure written by MMmdl.
 18 17  0  0  1  0            999 V2000
    3.3871    1.9567    3.7999 N   0  0  0  0  0  0
    2.1478    2.2117    3.0348 C   0  0  0  0  0  0
    3.6797    0.7280    4.2986 C   0  0  0  0  0  0
    4.3020    3.0968    4.0084 C   0  0  0  0  0  0
    0.8923    2.2679    3.8996 C   0  0  0  0  0  0
    4.8338    0.4999    4.9456 N   0  0  0  0  0  0
    0.1847    3.2939    3.7957 O   0  0  0  0  0  0
    2.2559    3.1514    2.4920 H   0  0  0  0  0  0
    2.0015    1.4522    2.2662 H   0  0  0  0  0  0
    4.3706    3.3366    5.0696 H   0  0  0  0  0  0
    5.2992    2.8504    3.6433 H   0  0  0  0  0  0
    3.9766    3.9942    3.4817 H   0  0  0  0  0  0
    5.0470   -0.4168    5.3102 H   0  0  0  0  0  0
    5.5002    1.2494    5.0622 H   0  0  0  0  0  0
    3.0484   -1.2116    4.5589 H   0  0  0  0  0  0
    2.8335   -0.3058    4.1703 N   0  3  0  0  0  0
    2.0168   -0.1965    3.5778 H   0  0  0  0  0  0
    0.6784    1.3000    4.6605 O   0  5  0  0  0  0
  1  2  1  0  0  0
  1  3  1  0  0  0
  1  4  1  0  0  0
  2  5  1  0  0  0
  2  8  1  0  0  0
  2  9  1  0  0  0
  3  6  1  0  0  0
  3 16  2  0  0  0
  4 10  1  0  0  0
  4 11  1  0  0  0
  4 12  1  0  0  0
  5  7  2  0  0  0
  5 18  1  0  0  0
  6 13  1  0  0  0
  6 14  1  0  0  0
 15 16  1  0  0  0
 16 17  1  0  0  0
M  CHG  2  16   1  18  -1
M  END
> <i_ionizer_Ion_state_n>
3

> <i_ionizer_Tot_Q>
0

> <s_ionizer_Ion_centers>
16_18

> <s_ionizer_Ion_types>
N4_OM

> <s_ionizer_Ion_ctrs_in>
7_8

> <r_ionizer_Ionization_penalty>
0.000594063

> <r_ionizer_Ionization_penalty_charging>
0.000594063

> <r_ionizer_Ionization_penalty_neutral>
0

> <i_mmod_Serial_Number-OPLS-2005>
183

> <i_i_glide_lignum>
181

> <r_i_docking_score>
-3.57312

> <r_i_glide_gscore>
-3.57312

> <r_i_glide_lipo>
-0.229114

> <r_i_glide_hbond>
-1.33182

> <r_i_glide_metal>
0

> <r_i_glide_eburp>
-2.5

> <r_i_glide_evdw>
-7.99009

> <r_i_glide_ecoul>
-8.7784

> <r_i_glide_erotb>
1.84758

> <r_i_glide_esite>
0.157287

> <r_i_glide_emodel>
-43.8282

> <r_i_glide_energy>
-16.7685

> <r_i_glide_einternal>
1.00624

> <i_i_glide_confnum>
2

> <i_i_glide_posenum>
124

$$$$
C01149
                    3D
 Structure written by MMmdl.
 25 24  0  0  1  0            999 V2000
    2.9253    1.7147    3.6157 C   0  0  0  0  0  0
    3.7048    0.4695    3.3674 N   0  3  0  0  0  0
    3.4025    2.9536    2.8309 C   0  0  0  0  0  0
    5.0466    0.6350    3.9691 C   0  0  0  0  0  0
    3.0500   -0.7008    3.9961 C   0  0  0  0  0  0
    3.8686    0.2266    1.9155 C   0  0  0  0  0  0
    2.5466    4.1876    3.1446 C   0  0  0  0  0  0
    1.0611    3.9184    2.9283 C   0  0  0  0  0  0
    0.2800    3.9272    3.8768 O   0  0  0  0  0  0
    1.8786    1.5237    3.3744 H   0  0  0  0  0  0
    2.9568    1.9376    4.6832 H   0  0  0  0  0  0
    4.4422    3.1746    3.0720 H   0  0  0  0  0  0
    3.3618    2.7590    1.7592 H   0  0  0  0  0  0
    5.6564   -0.2556    3.8120 H   0  0  0  0  0  0
    5.5689    1.4838    3.5258 H   0  0  0  0  0  0
    4.9718    0.8073    5.0436 H   0  0  0  0  0  0
    3.6725   -1.5905    3.8927 H   0  0  0  0  0  0
    2.8838   -0.5271    5.0599 H   0  0  0  0  0  0
    2.0884   -0.9173    3.5306 H   0  0  0  0  0  0
    4.5192   -0.6312    1.7408 H   0  0  0  0  0  0
    2.9125    0.0163    1.4362 H   0  0  0  0  0  0
    4.3139    1.0931    1.4252 H   0  0  0  0  0  0
    2.6975    4.4979    4.1788 H   0  0  0  0  0  0
    2.8449    5.0239    2.5119 H   0  0  0  0  0  0
    0.7541    3.7236    1.9004 H   0  0  0  0  0  0
  1  2  1  0  0  0
  1  3  1  0  0  0
  1 10  1  0  0  0
  1 11  1  0  0  0
  2  4  1  0  0  0
  2  5  1  0  0  0
  2  6  1  0  0  0
  3  7  1  0  0  0
  3 12  1  0  0  0
  3 13  1  0  0  0
  4 14  1  0  0  0
  4 15  1  0  0  0
  4 16  1  0  0  0
  5 17  1  0  0  0
  5 18  1  0  0  0
  5 19  1  0  0  0
  6 20  1  0  0  0
  6 21  1  0  0  0
  6 22  1  0  0  0
  7  8  1  0  0  0
  7 23  1  0  0  0
  7 24  1  0  0  0
  8  9  2  0  0  0
  8 25  1  0  0  0
M  CHG  1   2   1
M  END
> <i_ionizer_Ion_state_n>
0

> <i_ionizer_Tot_Q>
1

> <s_ionizer_Ion_centers>


> <s_ionizer_Ion_types>


> <s_ionizer_Ion_ctrs_in>


> <r_ionizer_Ionization_penalty>
0

> <r_ionizer_Ionization_penalty_charging>
0

> <r_ionizer_Ionization_penalty_neutral>
0

> <i_mmod_Serial_Number-OPLS-2005>
402

> <i_i_glide_lignum>
398

> <r_i_docking_score>
-3.55331

> <r_i_glide_gscore>
-3.55331

> <r_i_glide_lipo>
-0.419345

> <r_i_glide_hbond>
-0.5

> <r_i_glide_metal>
0

> <r_i_glide_eburp>
-2.5

> <r_i_glide_evdw>
-12.7732

> <r_i_glide_ecoul>
-4.81188

> <r_i_glide_erotb>
1.86815

> <r_i_glide_esite>
-0.499067

> <r_i_glide_emodel>
-24.1455

> <r_i_glide_energy>
-17.585

> <r_i_glide_einternal>
1.19233

> <i_i_glide_confnum>
1

> <i_i_glide_posenum>
738

$$$$
C01134
                    3D
 Structure written by MMmdl.
 43 42  0  0  1  0            999 V2000
    3.4296    3.2061    2.4377 C   0  0  0  0  0  0
    2.1274    3.9306    1.9536 C   0  0  2  0  0  0
    3.0249    1.9056    3.1790 C   0  0  0  0  0  0
    4.3055    2.8279    1.2202 C   0  0  0  0  0  0
    4.2677    4.0885    3.3922 C   0  0  0  0  0  0
    2.3531    5.2692    1.2254 C   0  0  0  0  0  0
    1.2363    4.1481    3.0341 O   0  0  0  0  0  0
    2.4754    0.9472    2.2873 O   0  0  0  0  0  0
    1.4605    5.5868    0.2760 N   0  0  0  0  0  0
    3.2920    6.0053    1.5317 O   0  0  0  0  0  0
    1.2418   -0.1428    2.9958 P   0  0  0  0  0  0
    1.3822    6.8841   -0.3814 C   0  0  0  0  0  0
    0.9551    0.5440    4.3498 O   0  0  0  0  0  0
    0.4965    7.8459    0.4290 C   0  0  0  0  0  0
   -0.8164    7.2049    0.8889 C   0  0  0  0  0  0
   -1.8709    8.0250    1.0013 N   0  0  0  0  0  0
   -0.8750    5.9990    1.1296 O   0  0  0  0  0  0
   -3.1992    7.6008    1.4223 C   0  0  0  0  0  0
   -3.2314    7.3462    2.9345 C   0  0  0  0  0  0
   -3.1178    8.9294    3.8082 S   0  0  0  0  0  0
    1.6046    3.2646    1.2647 H   0  0  0  0  0  0
    3.8890    1.4460    3.6589 H   0  0  0  0  0  0
    2.3206    2.1346    3.9801 H   0  0  0  0  0  0
    5.1860    2.2603    1.5228 H   0  0  0  0  0  0
    3.7518    2.2136    0.5097 H   0  0  0  0  0  0
    4.6706    3.7050    0.6859 H   0  0  0  0  0  0
    5.1440    3.5511    3.7560 H   0  0  0  0  0  0
    4.6328    4.9908    2.9027 H   0  0  0  0  0  0
    3.6925    4.3946    4.2662 H   0  0  0  0  0  0
    1.6275    4.7751    3.6224 H   0  0  0  0  0  0
    0.8037    4.8783   -0.0175 H   0  0  0  0  0  0
    2.3905    7.2880   -0.4879 H   0  0  0  0  0  0
    0.9765    6.7568   -1.3869 H   0  0  0  0  0  0
    1.0472    8.1984    1.3027 H   0  0  0  0  0  0
    0.2572    8.7265   -0.1682 H   0  0  0  0  0  0
   -1.7440    9.0024    0.7824 H   0  0  0  0  0  0
   -3.9247    8.3710    1.1548 H   0  0  0  0  0  0
   -3.4760    6.6937    0.8823 H   0  0  0  0  0  0
   -4.1552    6.8447    3.2247 H   0  0  0  0  0  0
   -2.3994    6.7107    3.2397 H   0  0  0  0  0  0
   -3.7875    9.6417    2.8975 H   0  0  0  0  0  0
    0.1048   -0.0783    1.9512 O   0  5  0  0  0  0
    2.0152   -1.4777    3.0668 O   0  5  0  0  0  0
  1  2  1  0  0  0
  1  3  1  0  0  0
  1  4  1  0  0  0
  1  5  1  0  0  0
  2  6  1  0  0  0
  2  7  1  0  0  0
  2 21  1  0  0  0
  3  8  1  0  0  0
  3 22  1  0  0  0
  3 23  1  0  0  0
  4 24  1  0  0  0
  4 25  1  0  0  0
  4 26  1  0  0  0
  5 27  1  0  0  0
  5 28  1  0  0  0
  5 29  1  0  0  0
  6  9  1  0  0  0
  6 10  2  0  0  0
  7 30  1  0  0  0
  8 11  1  0  0  0
  9 12  1  0  0  0
  9 31  1  0  0  0
 11 13  2  0  0  0
 11 42  1  0  0  0
 11 43  1  0  0  0
 12 14  1  0  0  0
 12 32  1  0  0  0
 12 33  1  0  0  0
 14 15  1  0  0  0
 14 34  1  0  0  0
 14 35  1  0  0  0
 15 16  1  0  0  0
 15 17  2  0  0  0
 16 18  1  0  0  0
 16 36  1  0  0  0
 18 19  1  0  0  0
 18 37  1  0  0  0
 18 38  1  0  0  0
 19 20  1  0  0  0
 19 39  1  0  0  0
 19 40  1  0  0  0
 20 41  1  0  0  0
M  CHG  2  42  -1  43  -1
M  END
> <i_ionizer_Ion_state_n>
3

> <i_ionizer_Tot_Q>
-2

> <s_ionizer_Ion_centers>
42_43

> <s_ionizer_Ion_types>
OM_OM

> <s_ionizer_Ion_ctrs_in>
13_14

> <r_ionizer_Ionization_penalty>
0.00188557

> <r_ionizer_Ionization_penalty_charging>
1.49178e-05

> <r_ionizer_Ionization_penalty_neutral>
0.00187065

> <s_st_Chirality_1>
2_R_7_6_1_21

> <i_mmod_Serial_Number-OPLS-2005>
398

> <i_i_glide_lignum>
394

> <r_i_docking_score>
-3.54479

> <r_i_glide_gscore>
-3.54479

> <r_i_glide_lipo>
-0.726625

> <r_i_glide_hbond>
-0.7848

> <r_i_glide_metal>
0

> <r_i_glide_eburp>
-1.08836

> <r_i_glide_evdw>
-27.3887

> <r_i_glide_ecoul>
-7.89686

> <r_i_glide_erotb>
1.89411

> <r_i_glide_esite>
0.14167

> <r_i_glide_emodel>
-65.293

> <r_i_glide_energy>
-35.2855

> <r_i_glide_einternal>
10.3169

> <i_i_glide_confnum>
277

> <i_i_glide_posenum>
247

$$$$
C03794
                    3D
 Structure written by MMmdl.
 45 47  0  0  1  0            999 V2000
    0.0472    5.4050    2.0812 N   0  0  0  0  0  0
    1.0637    4.5130    2.3435 C   0  0  0  0  0  0
    0.2315    6.8008    1.5725 C   0  0  2  0  0  0
   -1.1104    4.7317    2.4125 C   0  0  0  0  0  0
    0.4343    3.3298    2.8176 C   0  0  0  0  0  0
    2.4061    4.7022    2.1880 N   0  0  0  0  0  0
   -0.0706    7.6929    2.6039 O   0  0  0  0  0  0
   -0.7566    7.0714    0.4386 C   0  0  1  0  0  0
   -0.9428    3.5097    2.8439 N   0  0  0  0  0  0
    1.2983    2.2567    3.1556 C   0  0  0  0  0  0
    3.0939    3.6137    2.5418 C   0  0  0  0  0  0
   -1.3323    8.3359    2.3991 C   0  0  1  0  0  0
   -1.9602    7.6377    1.1816 C   0  0  1  0  0  0
   -0.2089    7.9791   -0.4997 O   0  0  0  0  0  0
    0.8125    1.0871    3.6224 N   0  0  0  0  0  0
    2.6327    2.4464    2.9992 N   0  0  0  0  0  0
   -2.1266    8.2563    3.7213 C   0  0  0  0  0  0
   -2.6966    8.5001    0.3325 O   0  0  0  0  0  0
    1.5004   -0.1983    3.7716 C   0  0  2  0  0  0
   -3.2761    9.0881    3.7522 O   0  0  0  0  0  0
    2.7096   -0.1282    4.7480 C   0  0  0  0  0  0
    1.8214   -0.8412    2.4110 C   0  0  0  0  0  0
   -4.4896    8.7669    5.0327 P   0  0  0  0  0  0
    3.9788    0.4978    4.1560 C   0  0  0  0  0  0
    0.9701   -0.6922    1.5063 O   0  0  0  0  0  0
   -5.5293    9.8739    4.7554 O   0  0  0  0  0  0
    4.3632    1.5818    4.6476 O   0  0  0  0  0  0
    1.2822    6.8452    1.2825 H   0  0  0  0  0  0
   -2.0924    5.1722    2.3323 H   0  0  0  0  0  0
   -1.0090    6.1538   -0.0946 H   0  0  0  0  0  0
    4.1673    3.6839    2.4466 H   0  0  0  0  0  0
   -1.1020    9.3757    2.1624 H   0  0  0  0  0  0
   -2.6000    6.8185    1.5124 H   0  0  0  0  0  0
   -0.0844    8.8022   -0.0493 H   0  0  0  0  0  0
   -0.1461    1.0400    3.9342 H   0  0  0  0  0  0
   -2.3629    7.2292    3.9974 H   0  0  0  0  0  0
   -1.4933    8.6284    4.5267 H   0  0  0  0  0  0
   -3.0883    9.1907    0.8626 H   0  0  0  0  0  0
    0.7646   -0.8593    4.2318 H   0  0  0  0  0  0
    2.4340    0.4506    5.6300 H   0  0  0  0  0  0
    2.9599   -1.1252    5.1122 H   0  0  0  0  0  0
    2.8955   -1.4716    2.2874 O   0  5  0  0  0  0
   -4.9504    7.3259    4.7205 O   0  5  0  0  0  0
   -3.6423    8.9422    6.3114 O   0  5  0  0  0  0
    4.5332   -0.1026    3.2084 O   0  5  0  0  0  0
  1  2  1  0  0  0
  1  3  1  0  0  0
  1  4  1  0  0  0
  2  5  2  0  0  0
  2  6  1  0  0  0
  3  7  1  0  0  0
  3  8  1  0  0  0
  3 28  1  0  0  0
  4  9  2  0  0  0
  4 29  1  0  0  0
  5 10  1  0  0  0
  5  9  1  0  0  0
  6 11  2  0  0  0
  7 12  1  0  0  0
  8 13  1  0  0  0
  8 14  1  0  0  0
  8 30  1  0  0  0
 10 15  1  0  0  0
 10 16  2  0  0  0
 11 16  1  0  0  0
 11 31  1  0  0  0
 12 17  1  0  0  0
 12 13  1  0  0  0
 12 32  1  0  0  0
 13 18  1  0  0  0
 13 33  1  0  0  0
 14 34  1  0  0  0
 15 19  1  0  0  0
 15 35  1  0  0  0
 17 20  1  0  0  0
 17 36  1  0  0  0
 17 37  1  0  0  0
 18 38  1  0  0  0
 19 21  1  0  0  0
 19 22  1  0  0  0
 19 39  1  0  0  0
 20 23  1  0  0  0
 21 24  1  0  0  0
 21 40  1  0  0  0
 21 41  1  0  0  0
 22 25  2  0  0  0
 22 42  1  0  0  0
 23 26  2  0  0  0
 23 43  1  0  0  0
 23 44  1  0  0  0
 24 27  2  0  0  0
 24 45  1  0  0  0
M  CHG  4  42  -1  43  -1  44  -1  45  -1
M  END
> <i_ionizer_Ion_state_n>
30

> <i_ionizer_Tot_Q>
-4

> <s_ionizer_Ion_centers>
42_43_44_45

> <s_ionizer_Ion_types>
OM_OM_OM_OM

> <s_ionizer_Ion_ctrs_in>
25_27_28_30

> <r_ionizer_Ionization_penalty>
0.00121803

> <r_ionizer_Ionization_penalty_charging>
0.0011993

> <r_ionizer_Ionization_penalty_neutral>
1.87357e-05

> <s_st_Chirality_1>
3_R_7_1_8_28

> <s_st_Chirality_2>
8_R_14_3_13_30

> <s_st_Chirality_3>
12_R_7_13_17_32

> <s_st_Chirality_4>
13_R_18_8_12_33

> <s_st_Chirality_5>
19_R_15_22_21_39

> <i_mmod_Serial_Number-OPLS-2005>
569

> <i_i_glide_lignum>
563

> <r_i_docking_score>
-3.54103

> <r_i_glide_gscore>
-3.54103

> <r_i_glide_lipo>
-0.735137

> <r_i_glide_hbond>
-1.44945

> <r_i_glide_metal>
0

> <r_i_glide_eburp>
-0.308573

> <r_i_glide_evdw>
-19.7297

> <r_i_glide_ecoul>
-3.16336

> <r_i_glide_erotb>
0.654067

> <r_i_glide_esite>
0.192774

> <r_i_glide_emodel>
-48.3085

> <r_i_glide_energy>
-22.893

> <r_i_glide_einternal>
8.86987

> <i_i_glide_confnum>
121

> <i_i_glide_posenum>
674

$$$$
C00792
                    3D
 Structure written by MMmdl.
 27 26  0  0  1  0            999 V2000
    3.7022    0.8777    2.6598 C   0  0  0  0  0  0
    4.0394    0.6195    1.1784 C   0  0  0  0  0  0
    2.6614   -0.0967    3.2598 C   0  0  2  0  0  0
    4.8336   -0.6767    0.9709 C   0  0  0  0  0  0
    1.2133    0.3578    3.0328 C   0  0  0  0  0  0
    5.3003   -0.7952   -0.4174 N   0  0  0  0  0  0
    0.8296    1.3812    3.6421 O   0  0  0  0  0  0
    6.5690   -1.0144   -0.8032 C   0  0  0  0  0  0
    7.5227   -1.1500    0.1268 N   0  0  0  0  0  0
    4.6209    0.8117    3.2441 H   0  0  0  0  0  0
    3.3504    1.9048    2.7706 H   0  0  0  0  0  0
    3.1151    0.5751    0.6007 H   0  0  0  0  0  0
    4.6146    1.4535    0.7742 H   0  0  0  0  0  0
    2.7984   -1.0711    2.7872 H   0  0  0  0  0  0
    5.6980   -0.6991    1.6356 H   0  0  0  0  0  0
    4.2139   -1.5410    1.2124 H   0  0  0  0  0  0
    2.2408   -0.9770    5.0503 H   0  0  0  0  0  0
    3.8430   -0.6235    4.8508 H   0  0  0  0  0  0
    4.5908   -0.6912   -1.1290 H   0  0  0  0  0  0
    8.4816   -1.3159   -0.1427 H   0  0  0  0  0  0
    7.2920   -1.0891    1.1081 H   0  0  0  0  0  0
    7.8548   -1.2660   -2.3798 H   0  0  0  0  0  0
    2.8999   -0.2970    4.6993 N   0  3  0  0  0  0
    2.7572    0.5811    5.1778 H   0  0  0  0  0  0
    0.5140   -0.3270    2.2553 O   0  5  0  0  0  0
    6.8989   -1.1005   -2.1001 N   0  3  0  0  0  0
    6.1862   -1.0015   -2.8083 H   0  0  0  0  0  0
  1  2  1  0  0  0
  1  3  1  0  0  0
  1 10  1  0  0  0
  1 11  1  0  0  0
  2  4  1  0  0  0
  2 12  1  0  0  0
  2 13  1  0  0  0
  3  5  1  0  0  0
  3 14  1  0  0  0
  3 23  1  0  0  0
  4  6  1  0  0  0
  4 15  1  0  0  0
  4 16  1  0  0  0
  5  7  2  0  0  0
  5 25  1  0  0  0
  6  8  1  0  0  0
  6 19  1  0  0  0
  8  9  1  0  0  0
  8 26  2  0  0  0
  9 20  1  0  0  0
  9 21  1  0  0  0
 17 23  1  0  0  0
 18 23  1  0  0  0
 22 26  1  0  0  0
 23 24  1  0  0  0
 26 27  1  0  0  0
M  CHG  3  23   1  25  -1  26   1
M  END
> <i_ionizer_Ion_state_n>
7

> <i_ionizer_Tot_Q>
1

> <s_ionizer_Ion_centers>
23_25_26

> <s_ionizer_Ion_types>
N5_OM_N4

> <s_ionizer_Ion_ctrs_in>
6_8_12

> <r_ionizer_Ionization_penalty>
0.000781394

> <r_ionizer_Ionization_penalty_charging>
0.000781394

> <r_ionizer_Ionization_penalty_neutral>
0

> <s_st_Chirality_1>
3_R_23_5_1_14

> <i_mmod_Serial_Number-OPLS-2005>
336

> <i_i_glide_lignum>
333

> <r_i_docking_score>
-3.53827

> <r_i_glide_gscore>
-3.53827

> <r_i_glide_lipo>
-0.457001

> <r_i_glide_hbond>
-1.03315

> <r_i_glide_metal>
0

> <r_i_glide_eburp>
-2.46051

> <r_i_glide_evdw>
-12.7171

> <r_i_glide_ecoul>
-11.3599

> <r_i_glide_erotb>
2.90333

> <r_i_glide_esite>
-0.337579

> <r_i_glide_emodel>
-54.105

> <r_i_glide_energy>
-24.077

> <r_i_glide_einternal>
3.3728

> <i_i_glide_confnum>
60

> <i_i_glide_posenum>
787

$$$$
C04778
                    3D
 Structure written by MMmdl.
 42 44  0  0  1  0            999 V2000
    1.7096    4.2505    2.1609 N   0  0  0  0  0  0
    1.1959    5.2570    1.4042 C   0  0  0  0  0  0
    2.5215    3.0975    1.6566 C   0  0  2  0  0  0
    1.3299    4.5801    3.4157 C   0  0  0  0  0  0
    0.4996    6.2024    2.1932 C   0  0  0  0  0  0
    1.3010    5.4210    0.0245 C   0  0  0  0  0  0
    2.0420    1.9078    2.2592 O   0  0  0  0  0  0
    3.9538    3.2608    2.1511 C   0  0  1  0  0  0
   -0.1144    7.3253    1.6539 C   0  0  0  0  0  0
    0.6841    6.5573   -0.5481 C   0  0  0  0  0  0
    3.1001    1.1344    2.8034 C   0  0  1  0  0  0
    4.4047    1.8388    2.4015 C   0  0  1  0  0  0
    4.7669    3.9032    1.1889 O   0  0  0  0  0  0
   -0.0150    7.4962    0.2549 C   0  0  0  0  0  0
    0.7870    6.7553   -2.0510 C   0  0  0  0  0  0
    2.9738    0.9583    4.3276 C   0  0  0  0  0  0
    5.0257    1.2501    1.2752 O   0  0  0  0  0  0
   -0.6724    8.7124   -0.3751 C   0  0  0  0  0  0
    1.6579    0.5699    4.6864 O   0  0  0  0  0  0
    0.9250   -0.7078    3.6621 P   0  0  0  0  0  0
    2.1635   -1.4358    3.0901 O   0  0  0  0  0  0
    2.4187    3.1257    0.5712 H   0  0  0  0  0  0
    1.5874    3.9832    4.2784 H   0  0  0  0  0  0
    1.8361    4.7122   -0.5902 H   0  0  0  0  0  0
    3.9865    3.8494    3.0691 H   0  0  0  0  0  0
   -0.6407    8.0352    2.2750 H   0  0  0  0  0  0
    3.0870    0.1567    2.3186 H   0  0  0  0  0  0
    5.1008    1.8198    3.2376 H   0  0  0  0  0  0
    4.4119    4.7696    1.0522 H   0  0  0  0  0  0
    1.3545    5.9523   -2.5223 H   0  0  0  0  0  0
   -0.2045    6.7717   -2.5040 H   0  0  0  0  0  0
    1.2890    7.6956   -2.2799 H   0  0  0  0  0  0
    3.6987    0.2280    4.6857 H   0  0  0  0  0  0
    3.2215    1.8907    4.8344 H   0  0  0  0  0  0
    4.3585    1.1472    0.6101 H   0  0  0  0  0  0
    0.0703    9.3311   -0.8792 H   0  0  0  0  0  0
   -1.4230    8.4074   -1.1045 H   0  0  0  0  0  0
   -1.1682    9.3313    0.3733 H   0  0  0  0  0  0
    0.6090    5.7266    3.5085 N   0  3  0  0  0  0
    0.2534    6.1345    4.3637 H   0  0  0  0  0  0
    0.1011   -1.5004    4.6999 O   0  5  0  0  0  0
    0.1192    0.1391    2.6541 O   0  5  0  0  0  0
  1  2  1  0  0  0
  1  3  1  0  0  0
  1  4  1  0  0  0
  2  5  2  0  0  0
  2  6  1  0  0  0
  3  7  1  0  0  0
  3  8  1  0  0  0
  3 22  1  0  0  0
  4 23  1  0  0  0
  4 39  2  0  0  0
  5  9  1  0  0  0
  5 39  1  0  0  0
  6 10  2  0  0  0
  6 24  1  0  0  0
  7 11  1  0  0  0
  8 12  1  0  0  0
  8 13  1  0  0  0
  8 25  1  0  0  0
  9 14  2  0  0  0
  9 26  1  0  0  0
 10 15  1  0  0  0
 10 14  1  0  0  0
 11 16  1  0  0  0
 11 12  1  0  0  0
 11 27  1  0  0  0
 12 17  1  0  0  0
 12 28  1  0  0  0
 13 29  1  0  0  0
 14 18  1  0  0  0
 15 30  1  0  0  0
 15 31  1  0  0  0
 15 32  1  0  0  0
 16 19  1  0  0  0
 16 33  1  0  0  0
 16 34  1  0  0  0
 17 35  1  0  0  0
 18 36  1  0  0  0
 18 37  1  0  0  0
 18 38  1  0  0  0
 19 20  1  0  0  0
 20 21  2  0  0  0
 20 41  1  0  0  0
 20 42  1  0  0  0
 39 40  1  0  0  0
M  CHG  3  39   1  41  -1  42  -1
M  END
> <i_ionizer_Ion_state_n>
7

> <i_ionizer_Tot_Q>
-1

> <s_ionizer_Ion_centers>
39_41_42

> <s_ionizer_Ion_types>
N4_OM_OM

> <s_ionizer_Ion_ctrs_in>
9_22_23

> <r_ionizer_Ionization_penalty>
0.410695

> <r_ionizer_Ionization_penalty_charging>
0.410695

> <r_ionizer_Ionization_penalty_neutral>
0

> <s_st_Chirality_1>
3_R_7_1_8_22

> <s_st_Chirality_2>
8_R_13_3_12_25

> <s_st_Chirality_3>
11_R_7_12_16_27

> <s_st_Chirality_4>
12_R_17_8_11_28

> <i_mmod_Serial_Number-OPLS-2005>
614

> <i_i_glide_lignum>
608

> <r_i_docking_score>
-3.51671

> <r_i_glide_gscore>
-3.51671

> <r_i_glide_lipo>
-1.17786

> <r_i_glide_hbond>
-0.314933

> <r_i_glide_metal>
0

> <r_i_glide_eburp>
-1.08119

> <r_i_glide_evdw>
-5.25281

> <r_i_glide_ecoul>
-6.14641

> <r_i_glide_erotb>
0.514142

> <r_i_glide_esite>
-0.421996

> <r_i_glide_emodel>
-20.2431

> <r_i_glide_energy>
-11.3992

> <r_i_glide_einternal>
5.66229

> <i_i_glide_confnum>
25

> <i_i_glide_posenum>
574

$$$$
C01344
                    3D
 Structure written by MMmdl.
 37 39  0  0  1  0            999 V2000
   -2.5190    7.8250    3.7196 N   0  0  0  0  0  0
   -3.3754    8.6294    4.4655 C   0  0  0  0  0  0
   -2.7802    7.2749    2.3491 C   0  0  2  0  0  0
   -1.4386    7.6519    4.5103 C   0  0  0  0  0  0
   -2.7386    8.8769    5.6514 C   0  0  0  0  0  0
   -4.6169    9.0707    4.0533 N   0  0  0  0  0  0
   -2.0348    6.1020    2.1863 O   0  0  0  0  0  0
   -2.2832    8.2614    1.2926 C   0  0  0  0  0  0
   -1.4992    8.2532    5.6978 N   0  0  0  0  0  0
   -3.4346    9.7241    6.6489 C   0  0  0  0  0  0
   -5.1998    9.8177    4.9552 C   0  0  0  0  0  0
   -0.9476    6.3216    1.2834 C   0  0  1  0  0  0
   -0.8355    7.8430    1.1518 C   0  0  1  0  0  0
   -4.6475   10.1478    6.2183 N   0  0  0  0  0  0
   -2.9669   10.0122    7.7486 O   0  0  0  0  0  0
    0.3268    5.6278    1.7785 C   0  0  0  0  0  0
   -0.3096    8.2318   -0.0997 O   0  0  0  0  0  0
    0.0820    4.2431    1.9155 O   0  0  0  0  0  0
    0.9203    3.3174    3.0682 P   0  0  0  0  0  0
    0.9363    1.7406    2.4246 O   0  0  0  0  0  0
    2.3106    3.8235    3.1333 O   0  0  0  0  0  0
    1.3462    0.0209    2.6989 P   0  0  0  0  0  0
    2.6641   -0.1377    1.9080 O   0  0  0  0  0  0
   -3.8543    7.0882    2.3253 H   0  0  0  0  0  0
   -0.5831    7.0634    4.2168 H   0  0  0  0  0  0
   -2.8362    8.0835    0.3691 H   0  0  0  0  0  0
   -2.4208    9.3003    1.5949 H   0  0  0  0  0  0
   -6.1867   10.2546    4.7955 H   0  0  0  0  0  0
   -1.2451    5.8954    0.3237 H   0  0  0  0  0  0
   -0.2396    8.2671    1.9588 H   0  0  0  0  0  0
   -5.1826   10.7325    6.8429 H   0  0  0  0  0  0
    1.1549    5.7888    1.0911 H   0  0  0  0  0  0
    0.6294    6.0342    2.7437 H   0  0  0  0  0  0
   -0.1531    9.1651   -0.0651 H   0  0  0  0  0  0
    0.1005    3.2992    4.3015 O   0  5  0  0  0  0
    1.4740   -0.0522    4.2370 O   0  5  0  0  0  0
    0.1190   -0.6985    2.0939 O   0  5  0  0  0  0
  1  2  1  0  0  0
  1  3  1  0  0  0
  1  4  1  0  0  0
  2  5  2  0  0  0
  2  6  1  0  0  0
  3  7  1  0  0  0
  3  8  1  0  0  0
  3 24  1  0  0  0
  4  9  2  0  0  0
  4 25  1  0  0  0
  5 10  1  0  0  0
  5  9  1  0  0  0
  6 11  2  0  0  0
  7 12  1  0  0  0
  8 13  1  0  0  0
  8 26  1  0  0  0
  8 27  1  0  0  0
 10 14  1  0  0  0
 10 15  2  0  0  0
 11 14  1  0  0  0
 11 28  1  0  0  0
 12 16  1  0  0  0
 12 13  1  0  0  0
 12 29  1  0  0  0
 13 17  1  0  0  0
 13 30  1  0  0  0
 14 31  1  0  0  0
 16 18  1  0  0  0
 16 32  1  0  0  0
 16 33  1  0  0  0
 17 34  1  0  0  0
 18 19  1  0  0  0
 19 20  1  0  0  0
 19 21  2  0  0  0
 19 35  1  0  0  0
 20 22  1  0  0  0
 22 23  2  0  0  0
 22 36  1  0  0  0
 22 37  1  0  0  0
M  CHG  3  35  -1  36  -1  37  -1
M  END
> <i_ionizer_Ion_state_n>
14

> <i_ionizer_Tot_Q>
-3

> <s_ionizer_Ion_centers>
35_36_37

> <s_ionizer_Ion_types>
OM_OM_OM

> <s_ionizer_Ion_ctrs_in>
21_24_25

> <r_ionizer_Ionization_penalty>
4.11125e-05

> <r_ionizer_Ionization_penalty_charging>
2.23767e-05

> <r_ionizer_Ionization_penalty_neutral>
1.87357e-05

> <s_st_Chirality_1>
3_R_7_1_8_24

> <s_st_Chirality_2>
12_R_7_13_16_29

> <s_st_Chirality_3>
13_S_17_12_8_30

> <i_mmod_Serial_Number-OPLS-2005>
440

> <i_i_glide_lignum>
436

> <r_i_docking_score>
-3.51585

> <r_i_glide_gscore>
-3.51585

> <r_i_glide_lipo>
-0.47405

> <r_i_glide_hbond>
-1.42703

> <r_i_glide_metal>
0

> <r_i_glide_eburp>
-0.688124

> <r_i_glide_evdw>
-17.8797

> <r_i_glide_ecoul>
-12.7101

> <r_i_glide_erotb>
0.671995

> <r_i_glide_esite>
1.10275

> <r_i_glide_emodel>
-74.2019

> <r_i_glide_energy>
-30.5898

> <r_i_glide_einternal>
3.33971

> <i_i_glide_confnum>
48

> <i_i_glide_posenum>
714

$$$$
C00143
                    3D
 Structure written by MMmdl.
 54 57  0  0  1  0            999 V2000
   -3.0724    9.7300    5.6365 N   0  0  0  0  0  0
   -3.7105   10.2132    6.7811 C   0  0  0  0  0  0
   -3.6076    9.9903    4.3098 C   0  0  1  0  0  0
   -1.9876    8.7603    5.5507 C   0  0  0  0  0  0
   -4.9456   10.7662    6.6814 C   0  0  0  0  0  0
   -3.0672   10.1610    8.1072 C   0  0  0  0  0  0
   -3.0572    8.8853    3.4187 C   0  0  0  0  0  0
   -5.1499   10.1425    4.2945 C   0  0  0  0  0  0
   -1.9846    8.2586    4.1770 N   0  0  0  0  0  0
   -5.6286   10.8391    5.4812 N   0  0  0  0  0  0
   -5.6447   11.2843    7.7726 N   0  0  0  0  0  0
   -3.8122   10.6774    9.1137 N   0  0  0  0  0  0
   -1.9482    9.7059    8.3390 O   0  0  0  0  0  0
   -1.1464    7.3008    3.7020 C   0  0  0  0  0  0
   -5.0849   11.2326    8.9388 C   0  0  0  0  0  0
   -1.2568    6.8318    2.3709 C   0  0  0  0  0  0
   -0.1374    6.7449    4.5248 C   0  0  0  0  0  0
   -5.6383   11.6961   10.1140 N   0  0  0  0  0  0
   -0.3885    5.8382    1.8793 C   0  0  0  0  0  0
    0.7315    5.7510    4.0345 C   0  0  0  0  0  0
    0.6072    5.2805    2.7084 C   0  0  0  0  0  0
    1.5397    4.2358    2.1634 C   0  0  0  0  0  0
    1.6733    3.1330    2.9169 N   0  0  0  0  0  0
    2.0869    4.3873    1.0710 O   0  0  0  0  0  0
    2.6433    2.0613    2.7126 C   0  0  2  0  0  0
    2.5603    1.0243    3.8620 C   0  0  0  0  0  0
    4.0270    2.6720    2.4569 C   0  0  0  0  0  0
    1.2489    0.2100    3.9667 C   0  0  0  0  0  0
    4.5763    2.4291    1.3601 O   0  0  0  0  0  0
    0.8980   -0.6056    2.7164 C   0  0  0  0  0  0
    1.6943   -1.4991    2.3518 O   0  0  0  0  0  0
   -3.1651   10.9400    4.0050 H   0  0  0  0  0  0
   -1.0377    9.2432    5.7841 H   0  0  0  0  0  0
   -2.1535    7.9406    6.2512 H   0  0  0  0  0  0
   -3.8168    8.1327    3.2028 H   0  0  0  0  0  0
   -2.7005    9.2915    2.4714 H   0  0  0  0  0  0
   -5.4801   10.6614    3.3946 H   0  0  0  0  0  0
   -5.6246    9.1607    4.2898 H   0  0  0  0  0  0
   -6.5667   11.2123    5.4672 H   0  0  0  0  0  0
   -3.4102   10.6610   10.0386 H   0  0  0  0  0  0
   -2.0086    7.2227    1.7022 H   0  0  0  0  0  0
   -0.0067    7.0725    5.5451 H   0  0  0  0  0  0
   -5.1832   11.6452   11.0136 H   0  0  0  0  0  0
   -6.5514   12.1250   10.1586 H   0  0  0  0  0  0
   -0.4970    5.5028    0.8578 H   0  0  0  0  0  0
    1.4969    5.3598    4.6894 H   0  0  0  0  0  0
    1.0659    3.0238    3.7160 H   0  0  0  0  0  0
    2.3727    1.5436    1.7899 H   0  0  0  0  0  0
    3.3780    0.3127    3.7412 H   0  0  0  0  0  0
    2.7536    1.5219    4.8135 H   0  0  0  0  0  0
    1.2785   -0.4536    4.8314 H   0  0  0  0  0  0
    0.4208    0.8958    4.1456 H   0  0  0  0  0  0
    4.5005    3.3983    3.3595 O   0  5  0  0  0  0
   -0.1564   -0.2934    2.1212 O   0  5  0  0  0  0
  1  2  1  0  0  0
  1  3  1  0  0  0
  1  4  1  0  0  0
  2  5  2  0  0  0
  2  6  1  0  0  0
  3  7  1  0  0  0
  3  8  1  0  0  0
  3 32  1  0  0  0
  4  9  1  0  0  0
  4 33  1  0  0  0
  4 34  1  0  0  0
  5 10  1  0  0  0
  5 11  1  0  0  0
  6 12  1  0  0  0
  6 13  2  0  0  0
  7  9  1  0  0  0
  7 35  1  0  0  0
  7 36  1  0  0  0
  8 10  1  0  0  0
  8 37  1  0  0  0
  8 38  1  0  0  0
  9 14  1  0  0  0
 10 39  1  0  0  0
 11 15  2  0  0  0
 12 15  1  0  0  0
 12 40  1  0  0  0
 14 16  1  0  0  0
 14 17  2  0  0  0
 15 18  1  0  0  0
 16 19  2  0  0  0
 16 41  1  0  0  0
 17 20  1  0  0  0
 17 42  1  0  0  0
 18 43  1  0  0  0
 18 44  1  0  0  0
 19 21  1  0  0  0
 19 45  1  0  0  0
 20 21  2  0  0  0
 20 46  1  0  0  0
 21 22  1  0  0  0
 22 23  1  0  0  0
 22 24  2  0  0  0
 23 25  1  0  0  0
 23 47  1  0  0  0
 25 26  1  0  0  0
 25 27  1  0  0  0
 25 48  1  0  0  0
 26 28  1  0  0  0
 26 49  1  0  0  0
 26 50  1  0  0  0
 27 29  2  0  0  0
 27 53  1  0  0  0
 28 30  1  0  0  0
 28 51  1  0  0  0
 28 52  1  0  0  0
 30 31  2  0  0  0
 30 54  1  0  0  0
M  CHG  2  53  -1  54  -1
M  END
> <i_ionizer_Ion_state_n>
6

> <i_ionizer_Tot_Q>
-2

> <s_ionizer_Ion_centers>
53_54

> <s_ionizer_Ion_types>
OM_OM

> <s_ionizer_Ion_ctrs_in>
29_32

> <r_ionizer_Ionization_penalty>
0.00859677

> <r_ionizer_Ionization_penalty_charging>
0.00118438

> <r_ionizer_Ionization_penalty_neutral>
0.00741239

> <s_st_Chirality_1>
3_R_1_7_8_32

> <s_st_Chirality_2>
25_R_23_27_26_48

> <i_mmod_Serial_Number-OPLS-2005>
104

> <i_i_glide_lignum>
102

> <r_i_docking_score>
-3.49452

> <r_i_glide_gscore>
-3.49452

> <r_i_glide_lipo>
-1.08365

> <r_i_glide_hbond>
-0.633263

> <r_i_glide_metal>
0

> <r_i_glide_eburp>
-0.337624

> <r_i_glide_evdw>
-23.3405

> <r_i_glide_ecoul>
-4.31416

> <r_i_glide_erotb>
0.664128

> <r_i_glide_esite>
0.194541

> <r_i_glide_emodel>
-54.6769

> <r_i_glide_energy>
-27.6546

> <r_i_glide_einternal>
5.92401

> <i_i_glide_confnum>
52

> <i_i_glide_posenum>
303

$$$$
C03771
                    3D
 Structure written by MMmdl.
 23 22  0  0  1  0            999 V2000
    2.5129    2.4563    1.6128 C   0  0  0  0  0  0
    3.8389    2.1715    2.3414 C   0  0  0  0  0  0
    1.2747    2.3265    2.5132 C   0  0  0  0  0  0
    3.8777    2.7928    3.7433 C   0  0  0  0  0  0
    0.7640    3.6179    3.1902 C   0  0  0  0  0  0
    0.7198    1.2388    2.6828 O   0  0  0  0  0  0
    4.9622    2.2172    4.5501 N   0  0  0  0  0  0
    1.4293    4.6561    2.9756 O   0  0  0  0  0  0
    5.0234    0.9477    4.9869 C   0  0  0  0  0  0
    4.0225    0.1071    4.6994 N   0  0  0  0  0  0
    2.5329    3.4644    1.1968 H   0  0  0  0  0  0
    2.4020    1.7697    0.7725 H   0  0  0  0  0  0
    3.9901    1.0936    2.4205 H   0  0  0  0  0  0
    4.6719    2.5590    1.7522 H   0  0  0  0  0  0
    4.0237    3.8713    3.6730 H   0  0  0  0  0  0
    2.9294    2.6255    4.2553 H   0  0  0  0  0  0
    5.7179    2.8437    4.7872 H   0  0  0  0  0  0
    4.0503   -0.8503    5.0186 H   0  0  0  0  0  0
    3.2301    0.4247    4.1599 H   0  0  0  0  0  0
    6.0998   -0.4514    6.0269 H   0  0  0  0  0  0
   -0.2673    3.5007    3.8890 O   0  5  0  0  0  0
    6.0654    0.5046    5.7044 N   0  3  0  0  0  0
    6.8257    1.1308    5.9267 H   0  0  0  0  0  0
  1  2  1  0  0  0
  1  3  1  0  0  0
  1 11  1  0  0  0
  1 12  1  0  0  0
  2  4  1  0  0  0
  2 13  1  0  0  0
  2 14  1  0  0  0
  3  5  1  0  0  0
  3  6  2  0  0  0
  4  7  1  0  0  0
  4 15  1  0  0  0
  4 16  1  0  0  0
  5  8  2  0  0  0
  5 21  1  0  0  0
  7  9  1  0  0  0
  7 17  1  0  0  0
  9 10  1  0  0  0
  9 22  2  0  0  0
 10 18  1  0  0  0
 10 19  1  0  0  0
 20 22  1  0  0  0
 22 23  1  0  0  0
M  CHG  2  21  -1  22   1
M  END
> <i_ionizer_Ion_state_n>
3

> <i_ionizer_Tot_Q>
0

> <s_ionizer_Ion_centers>
21_22

> <s_ionizer_Ion_types>
OM_N4

> <s_ionizer_Ion_ctrs_in>
8_12

> <r_ionizer_Ionization_penalty>
0.000594063

> <r_ionizer_Ionization_penalty_charging>
0.000594063

> <r_ionizer_Ionization_penalty_neutral>
0

> <i_mmod_Serial_Number-OPLS-2005>
565

> <i_i_glide_lignum>
559

> <r_i_docking_score>
-3.47709

> <r_i_glide_gscore>
-3.47709

> <r_i_glide_lipo>
-0.30313

> <r_i_glide_hbond>
-1.45536

> <r_i_glide_metal>
0

> <r_i_glide_eburp>
-2.47596

> <r_i_glide_evdw>
-12.241

> <r_i_glide_ecoul>
-12.1015

> <r_i_glide_erotb>
2.95945

> <r_i_glide_esite>
-0.0126574

> <r_i_glide_emodel>
-55.6849

> <r_i_glide_energy>
-24.3425

> <r_i_glide_einternal>
5.01276

> <i_i_glide_confnum>
7

> <i_i_glide_posenum>
680

$$$$
C00011
                    3D
 Structure written by MMmdl.
  3  2  0  0  1  0            999 V2000
    1.5052   -0.1111    3.7079 C   0  0  0  0  0  0
    1.2999    0.8852    4.3000 O   0  0  0  0  0  0
    1.7000   -1.1000    3.1000 O   0  0  0  0  0  0
  1  2  2  0  0  0
  1  3  2  0  0  0
M  END
> <i_ionizer_Ion_state_n>
0

> <i_ionizer_Tot_Q>
0

> <s_ionizer_Ion_centers>


> <s_ionizer_Ion_types>


> <s_ionizer_Ion_ctrs_in>


> <r_ionizer_Ionization_penalty>
0

> <r_ionizer_Ionization_penalty_charging>
0

> <r_ionizer_Ionization_penalty_neutral>
0

> <i_mmod_Serial_Number-OPLS-2005>
10

> <i_i_glide_lignum>
10

> <r_i_docking_score>
-3.475

> <r_i_glide_gscore>
-3.475

> <r_i_glide_lipo>
0

> <r_i_glide_hbond>
-0.027861

> <r_i_glide_metal>
0

> <r_i_glide_eburp>
-2.5

> <r_i_glide_evdw>
-7.47037

> <r_i_glide_ecoul>
-0.70941

> <r_i_glide_erotb>
0

> <r_i_glide_esite>
-0.27857

> <r_i_glide_emodel>
-8.89669

> <r_i_glide_energy>
-8.17978

> <r_i_glide_einternal>
0

> <i_i_glide_confnum>
1

> <i_i_glide_posenum>
582

$$$$
C02990
                    3D
 Structure written by MMmdl.
 73 72  0  0  1  0            999 V2000
    2.0898    2.4631    3.1548 C   0  0  2  0  0  0
    2.7074    3.5589    2.4777 O   0  0  0  0  0  0
    2.9039    1.1519    2.9257 C   0  0  0  0  0  0
    0.5348    2.4049    3.0720 C   0  0  0  0  0  0
    2.8396    3.5895    1.1339 C   0  0  0  0  0  0
    2.2584   -0.1964    3.0939 N   0  3  0  0  0  0
   -0.2316    3.7064    3.3566 C   0  0  0  0  0  0
    3.3184    4.9488    0.6262 C   0  0  0  0  0  0
    2.6269    2.6542    0.3620 O   0  0  0  0  0  0
    1.7851   -0.2960    4.5017 C   0  0  0  0  0  0
    1.0629   -0.3344    2.2216 C   0  0  0  0  0  0
    3.1954   -1.3254    2.8564 C   0  0  0  0  0  0
    0.3867    4.6711    3.8558 O   0  0  0  0  0  0
    2.4852    6.1113    1.1934 C   0  0  0  0  0  0
    1.0612    6.1446    0.6204 C   0  0  0  0  0  0
    0.1917    7.2340    1.2647 C   0  0  0  0  0  0
   -1.2710    7.1718    0.8011 C   0  0  0  0  0  0
   -2.1686    8.1713    1.5450 C   0  0  0  0  0  0
   -2.2014    7.9205    3.0597 C   0  0  0  0  0  0
   -2.7807    9.1083    3.8418 C   0  0  0  0  0  0
   -2.5789    8.9710    5.3579 C   0  0  0  0  0  0
   -2.9789   10.2408    6.1234 C   0  0  0  0  0  0
   -2.5917   10.1810    7.6083 C   0  0  0  0  0  0
   -1.0752   10.0610    7.8178 C   0  0  0  0  0  0
   -0.6828   10.0647    9.3025 C   0  0  0  0  0  0
   -0.9747   11.4081    9.9864 C   0  0  0  0  0  0
   -0.5976   11.4065   11.4720 C   0  0  0  0  0  0
    2.2705    2.6300    4.2192 H   0  0  0  0  0  0
    3.2791    1.2188    1.9026 H   0  0  0  0  0  0
    3.7992    1.1864    3.5488 H   0  0  0  0  0  0
    0.2306    1.9984    2.1068 H   0  0  0  0  0  0
    0.1785    1.6895    3.8139 H   0  0  0  0  0  0
    4.3678    5.0683    0.8988 H   0  0  0  0  0  0
    3.2752    4.9543   -0.4636 H   0  0  0  0  0  0
    1.2596   -1.2351    4.6830 H   0  0  0  0  0  0
    2.6162   -0.2500    5.2076 H   0  0  0  0  0  0
    1.0985    0.5162    4.7465 H   0  0  0  0  0  0
    0.5459   -1.2763    2.4117 H   0  0  0  0  0  0
    0.3476    0.4708    2.3955 H   0  0  0  0  0  0
    1.3120   -0.3259    1.1676 H   0  0  0  0  0  0
    2.7275   -2.2805    3.0995 H   0  0  0  0  0  0
    3.5084   -1.3901    1.8171 H   0  0  0  0  0  0
    4.0894   -1.2327    3.4747 H   0  0  0  0  0  0
    2.4356    6.0289    2.2802 H   0  0  0  0  0  0
    2.9783    7.0604    0.9782 H   0  0  0  0  0  0
    1.1083    6.3081   -0.4570 H   0  0  0  0  0  0
    0.5895    5.1716    0.7645 H   0  0  0  0  0  0
    0.2323    7.1353    2.3502 H   0  0  0  0  0  0
    0.6054    8.2151    1.0281 H   0  0  0  0  0  0
   -1.3203    7.3683   -0.2707 H   0  0  0  0  0  0
   -1.6549    6.1613    0.9474 H   0  0  0  0  0  0
   -1.8176    9.1861    1.3532 H   0  0  0  0  0  0
   -3.1823    8.1148    1.1462 H   0  0  0  0  0  0
   -2.7925    7.0274    3.2666 H   0  0  0  0  0  0
   -1.1914    7.7111    3.4143 H   0  0  0  0  0  0
   -2.3143   10.0318    3.4963 H   0  0  0  0  0  0
   -3.8457    9.2005    3.6247 H   0  0  0  0  0  0
   -3.1628    8.1266    5.7263 H   0  0  0  0  0  0
   -1.5338    8.7372    5.5648 H   0  0  0  0  0  0
   -2.5057   11.1075    5.6601 H   0  0  0  0  0  0
   -4.0554   10.3931    6.0354 H   0  0  0  0  0  0
   -2.9581   11.0749    8.1147 H   0  0  0  0  0  0
   -3.0909    9.3331    8.0791 H   0  0  0  0  0  0
   -0.7162    9.1433    7.3504 H   0  0  0  0  0  0
   -0.5726   10.8841    7.3081 H   0  0  0  0  0  0
   -1.2199    9.2697    9.8216 H   0  0  0  0  0  0
    0.3788    9.8329    9.3976 H   0  0  0  0  0  0
   -0.4284   12.2038    9.4787 H   0  0  0  0  0  0
   -2.0338   11.6480    9.8855 H   0  0  0  0  0  0
   -0.8160   12.3719   11.9292 H   0  0  0  0  0  0
   -1.1550   10.6458   12.0192 H   0  0  0  0  0  0
    0.4656   11.2070   11.6084 H   0  0  0  0  0  0
   -1.4536    3.7010    3.0943 O   0  5  0  0  0  0
  1  2  1  0  0  0
  1  3  1  0  0  0
  1  4  1  0  0  0
  1 28  1  0  0  0
  2  5  1  0  0  0
  3  6  1  0  0  0
  3 29  1  0  0  0
  3 30  1  0  0  0
  4  7  1  0  0  0
  4 31  1  0  0  0
  4 32  1  0  0  0
  5  8  1  0  0  0
  5  9  2  0  0  0
  6 10  1  0  0  0
  6 11  1  0  0  0
  6 12  1  0  0  0
  7 13  2  0  0  0
  7 73  1  0  0  0
  8 14  1  0  0  0
  8 33  1  0  0  0
  8 34  1  0  0  0
 10 35  1  0  0  0
 10 36  1  0  0  0
 10 37  1  0  0  0
 11 38  1  0  0  0
 11 39  1  0  0  0
 11 40  1  0  0  0
 12 41  1  0  0  0
 12 42  1  0  0  0
 12 43  1  0  0  0
 14 15  1  0  0  0
 14 44  1  0  0  0
 14 45  1  0  0  0
 15 16  1  0  0  0
 15 46  1  0  0  0
 15 47  1  0  0  0
 16 17  1  0  0  0
 16 48  1  0  0  0
 16 49  1  0  0  0
 17 18  1  0  0  0
 17 50  1  0  0  0
 17 51  1  0  0  0
 18 19  1  0  0  0
 18 52  1  0  0  0
 18 53  1  0  0  0
 19 20  1  0  0  0
 19 54  1  0  0  0
 19 55  1  0  0  0
 20 21  1  0  0  0
 20 56  1  0  0  0
 20 57  1  0  0  0
 21 22  1  0  0  0
 21 58  1  0  0  0
 21 59  1  0  0  0
 22 23  1  0  0  0
 22 60  1  0  0  0
 22 61  1  0  0  0
 23 24  1  0  0  0
 23 62  1  0  0  0
 23 63  1  0  0  0
 24 25  1  0  0  0
 24 64  1  0  0  0
 24 65  1  0  0  0
 25 26  1  0  0  0
 25 66  1  0  0  0
 25 67  1  0  0  0
 26 27  1  0  0  0
 26 68  1  0  0  0
 26 69  1  0  0  0
 27 70  1  0  0  0
 27 71  1  0  0  0
 27 72  1  0  0  0
M  CHG  2   6   1  73  -1
M  END
> <i_ionizer_Ion_state_n>
1

> <i_ionizer_Tot_Q>
0

> <s_ionizer_Ion_centers>
73

> <s_ionizer_Ion_types>
OM

> <s_ionizer_Ion_ctrs_in>
14

> <r_ionizer_Ionization_penalty>
0.00059219

> <r_ionizer_Ionization_penalty_charging>
0.00059219

> <r_ionizer_Ionization_penalty_neutral>
0

> <s_st_Chirality_1>
1_S_2_3_4_28

> <i_mmod_Serial_Number-OPLS-2005>
519

> <i_i_glide_lignum>
513

> <r_i_docking_score>
-3.45913

> <r_i_glide_gscore>
-3.45913

> <r_i_glide_lipo>
-1.37117

> <r_i_glide_hbond>
-1.42742

> <r_i_glide_metal>
0

> <r_i_glide_eburp>
-0.760459

> <r_i_glide_evdw>
-24.8358

> <r_i_glide_ecoul>
-4.5822

> <r_i_glide_erotb>
2.38408

> <r_i_glide_esite>
0.16092

> <r_i_glide_emodel>
-59.2046

> <r_i_glide_energy>
-29.418

> <r_i_glide_einternal>
13.0752

> <i_i_glide_confnum>
48

> <i_i_glide_posenum>
635

$$$$
C01384
                    3D
 Structure written by MMmdl.
 10  9  0  0  1  0            999 V2000
    0.5132    2.4960    3.6462 C   0  0  0  0  0  0
    1.2389    1.3992    4.4698 C   0  0  0  0  0  0
    0.3634    2.2562    2.4283 O   0  0  0  0  0  0
    1.4841    0.1367    4.0725 C   0  0  0  0  0  0
    1.0928   -0.4881    2.7070 C   0  0  0  0  0  0
    1.7430   -1.4986    2.3615 O   0  0  0  0  0  0
    1.5741    1.6892    5.4539 H   0  0  0  0  0  0
    2.0020   -0.5138    4.7606 H   0  0  0  0  0  0
    0.0999    3.4825    4.2935 O   0  5  0  0  0  0
    0.1287    0.0463    2.1171 O   0  5  0  0  0  0
  1  2  1  0  0  0
  1  3  2  0  0  0
  1  9  1  0  0  0
  2  4  2  0  0  0
  2  7  1  0  0  0
  4  5  1  0  0  0
  4  8  1  0  0  0
  5  6  2  0  0  0
  5 10  1  0  0  0
M  CHG  2   9  -1  10  -1
M  END
> <i_ionizer_Ion_state_n>
3

> <i_ionizer_Tot_Q>
-2

> <s_ionizer_Ion_centers>
9_10

> <s_ionizer_Ion_types>
OM_OM

> <s_ionizer_Ion_ctrs_in>
3_7

> <r_ionizer_Ionization_penalty>
0.00118438

> <r_ionizer_Ionization_penalty_charging>
0.00118438

> <r_ionizer_Ionization_penalty_neutral>
0

> <s_st_EZ_1>
1_2_4_5_Z

> <i_mmod_Serial_Number-OPLS-2005>
445

> <i_i_glide_lignum>
441

> <r_i_docking_score>
-3.45707

> <r_i_glide_gscore>
-3.45707

> <r_i_glide_lipo>
-0.164985

> <r_i_glide_hbond>
-1.00977

> <r_i_glide_metal>
0

> <r_i_glide_eburp>
-2.5

> <r_i_glide_evdw>
-5.68815

> <r_i_glide_ecoul>
-9.50064

> <r_i_glide_erotb>
2.29367

> <r_i_glide_esite>
-0.670865

> <r_i_glide_emodel>
-38.5269

> <r_i_glide_energy>
-15.1888

> <r_i_glide_einternal>
2.44959

> <i_i_glide_confnum>
4

> <i_i_glide_posenum>
265

$$$$
C06675
                    3D
 Structure written by MMmdl.
 17 16  0  0  1  0            999 V2000
    3.1427    1.3698    2.4601 C   0  0  0  0  0  0
    2.1635    2.2474    1.8337 C   0  0  0  0  0  0
    4.0581    1.7549    3.3744 C   0  0  0  0  0  0
    3.0690   -0.3996    2.0386 S   0  0  0  0  0  0
    1.0449    2.7356    2.4061 C   0  0  0  0  0  0
    4.3238    3.1891    3.9006 C   0  0  0  0  0  0
    4.1543   -0.5795    1.0608 O   0  0  0  0  0  0
    1.7137   -0.5764    1.4924 O   0  0  0  0  0  0
    0.5138    2.4644    3.8396 C   0  0  0  0  0  0
    3.5970    4.0917    3.4295 O   0  0  0  0  0  0
    0.9000    1.4049    4.3799 O   0  0  0  0  0  0
    2.3604    2.5370    0.8127 H   0  0  0  0  0  0
    4.6989    0.9900    3.7862 H   0  0  0  0  0  0
    0.4321    3.3866    1.8013 H   0  0  0  0  0  0
    3.3000   -1.0523    3.3372 O   0  5  0  0  0  0
    5.2771    3.3090    4.7003 O   0  5  0  0  0  0
   -0.3005    3.3021    4.2846 O   0  5  0  0  0  0
  1  2  1  0  0  0
  1  3  2  0  0  0
  1  4  1  0  0  0
  2  5  2  0  0  0
  2 12  1  0  0  0
  3  6  1  0  0  0
  3 13  1  0  0  0
  4  7  2  0  0  0
  4  8  2  0  0  0
  4 15  1  0  0  0
  5  9  1  0  0  0
  5 14  1  0  0  0
  6 10  2  0  0  0
  6 16  1  0  0  0
  9 11  2  0  0  0
  9 17  1  0  0  0
M  CHG  3  15  -1  16  -1  17  -1
M  END
> <i_ionizer_Ion_state_n>
7

> <i_ionizer_Tot_Q>
-3

> <s_ionizer_Ion_centers>
15_16_17

> <s_ionizer_Ion_types>
OM_OM_OM

> <s_ionizer_Ion_ctrs_in>
7_11_13

> <r_ionizer_Ionization_penalty>
0.00118439

> <r_ionizer_Ionization_penalty_charging>
0.00118439

> <r_ionizer_Ionization_penalty_neutral>
0

> <s_st_EZ_1>
4_1_3_6_E

> <s_st_EZ_2>
1_2_5_9_Z

> <i_mmod_Serial_Number-OPLS-2005>
885

> <i_i_glide_lignum>
873

> <r_i_docking_score>
-3.45127

> <r_i_glide_gscore>
-3.45127

> <r_i_glide_lipo>
-0.227162

> <r_i_glide_hbond>
-0.537007

> <r_i_glide_metal>
0

> <r_i_glide_eburp>
-2.12765

> <r_i_glide_evdw>
-9.50284

> <r_i_glide_ecoul>
-5.81203

> <r_i_glide_erotb>
1.60133

> <r_i_glide_esite>
-0.819349

> <r_i_glide_emodel>
-41.7843

> <r_i_glide_energy>
-15.3149

> <r_i_glide_einternal>
9.93328

> <i_i_glide_confnum>
2

> <i_i_glide_posenum>
999

$$$$
C00473
                    3D
 Structure written by MMmdl.
 51 51  0  0  1  0            999 V2000
   -0.6155    6.6890    1.3695 C   0  0  0  0  0  0
   -2.0277    6.6453    1.9878 C   0  0  0  0  0  0
   -0.3447    7.3899    0.2340 C   0  0  0  0  0  0
    0.4315    5.9187    2.0284 C   0  0  0  0  0  0
   -3.1018    7.2174    1.0294 C   0  0  0  0  0  0
   -2.4332    5.1876    2.3012 C   0  0  0  0  0  0
   -2.0270    7.4506    3.3046 C   0  0  0  0  0  0
   -1.3944    8.2058   -0.5101 C   0  0  0  0  0  0
    1.0200    7.4507   -0.4442 C   0  0  0  0  0  0
    1.2467    5.0669    1.3762 C   0  0  0  0  0  0
   -2.6428    8.4910    0.3256 C   0  0  0  0  0  0
    2.3026    4.2643    1.9818 C   0  0  0  0  0  0
    2.4214    2.9846    1.5665 C   0  0  0  0  0  0
    3.2273    4.8420    3.0486 C   0  0  0  0  0  0
    3.4160    2.0306    2.0265 C   0  0  0  0  0  0
    3.8110    1.9688    3.3117 C   0  0  0  0  0  0
    4.8043    1.0478    3.8516 C   0  0  0  0  0  0
    5.4419    1.4162    4.9828 C   0  0  0  0  0  0
    5.1204   -0.2737    3.1610 C   0  0  0  0  0  0
    6.4949    0.6282    5.7412 C   0  0  0  0  0  0
    5.9458    0.0995    6.9283 O   0  0  0  0  0  0
    0.5428    6.0614    3.0915 H   0  0  0  0  0  0
   -3.3444    6.4790    0.2633 H   0  0  0  0  0  0
   -4.0333    7.4031    1.5658 H   0  0  0  0  0  0
   -3.4545    5.1346    2.6803 H   0  0  0  0  0  0
   -2.3813    4.5601    1.4106 H   0  0  0  0  0  0
   -1.7904    4.7363    3.0578 H   0  0  0  0  0  0
   -3.0181    7.4725    3.7590 H   0  0  0  0  0  0
   -1.3472    7.0180    4.0393 H   0  0  0  0  0  0
   -1.7154    8.4830    3.1458 H   0  0  0  0  0  0
   -0.9638    9.1537   -0.8345 H   0  0  0  0  0  0
   -1.6657    7.6600   -1.4144 H   0  0  0  0  0  0
    1.2980    8.4882   -0.6308 H   0  0  0  0  0  0
    1.8275    7.0135    0.1401 H   0  0  0  0  0  0
    0.9807    6.9361   -1.4044 H   0  0  0  0  0  0
    1.0927    4.9710    0.3103 H   0  0  0  0  0  0
   -3.4370    8.8782   -0.3134 H   0  0  0  0  0  0
   -2.4310    9.2698    1.0584 H   0  0  0  0  0  0
    1.7253    2.6327    0.8177 H   0  0  0  0  0  0
    3.4347    4.1139    3.8323 H   0  0  0  0  0  0
    4.1731    5.1500    2.6025 H   0  0  0  0  0  0
    2.7897    5.7013    3.5539 H   0  0  0  0  0  0
    3.8418    1.3418    1.3152 H   0  0  0  0  0  0
    3.3535    2.6672    3.9987 H   0  0  0  0  0  0
    5.2054    2.3744    5.4243 H   0  0  0  0  0  0
    6.1718   -0.5397    3.2658 H   0  0  0  0  0  0
    4.5158   -1.0759    3.5845 H   0  0  0  0  0  0
    4.9319   -0.2282    2.0894 H   0  0  0  0  0  0
    6.8990   -0.1935    5.1515 H   0  0  0  0  0  0
    7.3204    1.2920    5.9989 H   0  0  0  0  0  0
    5.4523   -0.6773    6.7129 H   0  0  0  0  0  0
  1  2  1  0  0  0
  1  3  2  0  0  0
  1  4  1  0  0  0
  2  5  1  0  0  0
  2  6  1  0  0  0
  2  7  1  0  0  0
  3  8  1  0  0  0
  3  9  1  0  0  0
  4 10  2  0  0  0
  4 22  1  0  0  0
  5 11  1  0  0  0
  5 23  1  0  0  0
  5 24  1  0  0  0
  6 25  1  0  0  0
  6 26  1  0  0  0
  6 27  1  0  0  0
  7 28  1  0  0  0
  7 29  1  0  0  0
  7 30  1  0  0  0
  8 11  1  0  0  0
  8 31  1  0  0  0
  8 32  1  0  0  0
  9 33  1  0  0  0
  9 34  1  0  0  0
  9 35  1  0  0  0
 10 12  1  0  0  0
 10 36  1  0  0  0
 11 37  1  0  0  0
 11 38  1  0  0  0
 12 13  2  0  0  0
 12 14  1  0  0  0
 13 15  1  0  0  0
 13 39  1  0  0  0
 14 40  1  0  0  0
 14 41  1  0  0  0
 14 42  1  0  0  0
 15 16  2  0  0  0
 15 43  1  0  0  0
 16 17  1  0  0  0
 16 44  1  0  0  0
 17 18  2  0  0  0
 17 19  1  0  0  0
 18 20  1  0  0  0
 18 45  1  0  0  0
 19 46  1  0  0  0
 19 47  1  0  0  0
 19 48  1  0  0  0
 20 21  1  0  0  0
 20 49  1  0  0  0
 20 50  1  0  0  0
 21 51  1  0  0  0
M  END
> <i_ionizer_Ion_state_n>
0

> <i_ionizer_Tot_Q>
0

> <s_ionizer_Ion_centers>


> <s_ionizer_Ion_types>


> <s_ionizer_Ion_ctrs_in>


> <r_ionizer_Ionization_penalty>
0

> <r_ionizer_Ionization_penalty_charging>
0

> <r_ionizer_Ionization_penalty_neutral>
0

> <s_st_EZ_1>
2_1_3_8_Z

> <s_st_EZ_2>
1_4_10_12_E

> <s_st_EZ_3>
13_15_16_17_E

> <i_mmod_Serial_Number-OPLS-2005>
252

> <i_i_glide_lignum>
250

> <r_i_docking_score>
-3.4466

> <r_i_glide_gscore>
-3.4466

> <r_i_glide_lipo>
-1.82301

> <r_i_glide_hbond>
-0.9

> <r_i_glide_metal>
0

> <r_i_glide_eburp>
-1.61772

> <r_i_glide_evdw>
0.680983

> <r_i_glide_ecoul>
-5.21481

> <r_i_glide_erotb>
1.26461

> <r_i_glide_esite>
0.0965152

> <r_i_glide_emodel>
-12.4344

> <r_i_glide_energy>
-4.53383

> <r_i_glide_einternal>
7.94811

> <i_i_glide_confnum>
7

> <i_i_glide_posenum>
354

$$$$
C05285
                    3D
 Structure written by MMmdl.
 46 49  0  0  1  0            999 V2000
    2.1331    3.5514    1.7821 C   0  0  2  0  0  0
    1.4568    4.8772    2.2847 C   0  0  2  0  0  0
    1.7733    2.3222    2.6879 C   0  0  2  0  0  0
    3.6660    3.5952    1.5189 C   0  0  0  0  0  0
   -0.0517    4.5893    2.4231 C   0  0  0  0  0  0
    1.6836    6.0911    1.3314 C   0  0  0  0  0  0
    2.0195    5.2999    3.6616 C   0  0  0  0  0  0
    2.4047    1.0547    2.0850 C   0  0  1  0  0  0
    0.2521    2.1640    2.8561 C   0  0  0  0  0  0
    4.3261    2.2824    1.0669 C   0  0  0  0  0  0
    4.3509    4.6050    1.6689 O   0  0  0  0  0  0
   -0.3970    3.4543    3.3653 C   0  0  0  0  0  0
   -1.0233    5.1888    1.7031 C   0  0  0  0  0  0
    0.7339    6.1491    0.1324 C   0  0  0  0  0  0
    3.9358    1.1444    2.0277 C   0  0  2  0  0  0
    2.1078   -0.3254    2.6843 C   0  0  0  0  0  0
   -0.7065    6.1326    0.6269 C   0  0  0  0  0  0
    4.2365   -0.2695    1.5486 C   0  0  0  0  0  0
    4.6063    1.3298    3.4106 C   0  0  0  0  0  0
    3.1571   -1.2396    2.0237 C   0  0  0  0  0  0
   -1.5454    6.8608    0.1011 O   0  0  0  0  0  0
    5.2154   -0.5912    0.8779 O   0  0  0  0  0  0
    1.7005    3.3486    0.8017 H   0  0  0  0  0  0
    2.1877    2.4789    3.6828 H   0  0  0  0  0  0
    2.0406    1.0070    1.0561 H   0  0  0  0  0  0
    1.5341    7.0101    1.9000 H   0  0  0  0  0  0
    2.7092    6.1501    0.9763 H   0  0  0  0  0  0
    1.4632    6.1472    4.0635 H   0  0  0  0  0  0
    1.9642    4.4989    4.3971 H   0  0  0  0  0  0
    3.0631    5.6051    3.5935 H   0  0  0  0  0  0
   -0.1938    1.8898    1.8995 H   0  0  0  0  0  0
    0.0337    1.3494    3.5468 H   0  0  0  0  0  0
    4.0040    2.0578    0.0496 H   0  0  0  0  0  0
    5.4091    2.4078    1.0408 H   0  0  0  0  0  0
   -0.0532    3.6882    4.3724 H   0  0  0  0  0  0
   -1.4787    3.3299    3.4230 H   0  0  0  0  0  0
   -2.0598    4.9169    1.8401 H   0  0  0  0  0  0
    0.9119    7.0528   -0.4510 H   0  0  0  0  0  0
    0.8963    5.2966   -0.5273 H   0  0  0  0  0  0
    2.2369   -0.3141    3.7669 H   0  0  0  0  0  0
    1.0902   -0.6522    2.4694 H   0  0  0  0  0  0
    4.3061    2.2597    3.8923 H   0  0  0  0  0  0
    4.3639    0.5153    4.0937 H   0  0  0  0  0  0
    5.6918    1.3574    3.3101 H   0  0  0  0  0  0
    3.5582   -1.9756    2.7205 H   0  0  0  0  0  0
    2.7395   -1.7610    1.1622 H   0  0  0  0  0  0
  1  2  1  0  0  0
  1  3  1  0  0  0
  1  4  1  0  0  0
  1 23  1  0  0  0
  2  5  1  0  0  0
  2  6  1  0  0  0
  2  7  1  0  0  0
  3  8  1  0  0  0
  3  9  1  0  0  0
  3 24  1  0  0  0
  4 10  1  0  0  0
  4 11  2  0  0  0
  5 12  1  0  0  0
  5 13  2  0  0  0
  6 14  1  0  0  0
  6 26  1  0  0  0
  6 27  1  0  0  0
  7 28  1  0  0  0
  7 29  1  0  0  0
  7 30  1  0  0  0
  8 15  1  0  0  0
  8 16  1  0  0  0
  8 25  1  0  0  0
  9 12  1  0  0  0
  9 31  1  0  0  0
  9 32  1  0  0  0
 10 15  1  0  0  0
 10 33  1  0  0  0
 10 34  1  0  0  0
 12 35  1  0  0  0
 12 36  1  0  0  0
 13 17  1  0  0  0
 13 37  1  0  0  0
 14 17  1  0  0  0
 14 38  1  0  0  0
 14 39  1  0  0  0
 15 18  1  0  0  0
 15 19  1  0  0  0
 16 20  1  0  0  0
 16 40  1  0  0  0
 16 41  1  0  0  0
 17 21  2  0  0  0
 18 22  2  0  0  0
 18 20  1  0  0  0
 19 42  1  0  0  0
 19 43  1  0  0  0
 19 44  1  0  0  0
 20 45  1  0  0  0
 20 46  1  0  0  0
M  END
> <i_ionizer_Ion_state_n>
0

> <i_ionizer_Tot_Q>
0

> <s_ionizer_Ion_centers>


> <s_ionizer_Ion_types>


> <s_ionizer_Ion_ctrs_in>


> <r_ionizer_Ionization_penalty>
0

> <r_ionizer_Ionization_penalty_charging>
0

> <r_ionizer_Ionization_penalty_neutral>
0

> <s_st_Chirality_1>
1_S_4_2_3_23

> <s_st_Chirality_2>
2_R_5_1_6_7

> <s_st_Chirality_3>
3_S_1_8_9_24

> <s_st_Chirality_4>
8_S_15_3_16_25

> <s_st_Chirality_5>
15_S_18_8_10_19

> <s_st_EZ_1>
2_5_13_17_Z

> <i_mmod_Serial_Number-OPLS-2005>
665

> <i_i_glide_lignum>
658

> <r_i_docking_score>
-3.44379

> <r_i_glide_gscore>
-3.44379

> <r_i_glide_lipo>
-1.48479

> <r_i_glide_hbond>
0

> <r_i_glide_metal>
0

> <r_i_glide_eburp>
-1.51211

> <r_i_glide_evdw>
1.06194

> <r_i_glide_ecoul>
4.56482

> <r_i_glide_erotb>
0

> <r_i_glide_esite>
-0.988319

> <r_i_glide_emodel>
4.38325

> <r_i_glide_energy>
5.62676

> <r_i_glide_einternal>
0

> <i_i_glide_confnum>
1

> <i_i_glide_posenum>
218

$$$$
C00002
                    3D
 Structure written by MMmdl.
 43 45  0  0  1  0            999 V2000
    3.9574    0.2914    0.6982 N   0  0  0  0  0  0
    4.8168   -0.5511    0.0284 C   0  0  0  0  0  0
    2.5846   -0.0579    1.1771 C   0  0  2  0  0  0
    4.6475    1.4809    0.8250 C   0  0  0  0  0  0
    5.9923    0.2092   -0.2161 C   0  0  0  0  0  0
    4.6131   -1.8509   -0.3369 N   0  0  0  0  0  0
    1.8053    1.1008    1.0971 O   0  0  0  0  0  0
    2.6478   -0.4808    2.6504 C   0  0  1  0  0  0
    5.8444    1.4894    0.2994 N   0  0  0  0  0  0
    7.0301   -0.4667   -0.9051 C   0  0  0  0  0  0
    5.6743   -2.3529   -0.9751 C   0  0  0  0  0  0
    1.3198    1.4688    2.3867 C   0  0  1  0  0  0
    2.3079    0.8200    3.3548 C   0  0  1  0  0  0
    1.7125   -1.5043    2.9331 O   0  0  0  0  0  0
    6.8333   -1.7548   -1.2713 N   0  0  0  0  0  0
    8.1998    0.1097   -1.2110 N   0  0  0  0  0  0
    1.2196    2.9942    2.4949 C   0  0  0  0  0  0
    1.8034    0.6272    4.6619 O   0  0  0  0  0  0
    2.3350    3.5754    1.8500 O   0  0  0  0  0  0
    2.2540    5.1123    1.1251 P   0  0  0  0  0  0
    0.8182    5.8158    1.7080 O   0  0  0  0  0  0
    3.4021    5.9133    1.6088 O   0  0  0  0  0  0
   -0.2653    5.5414    2.9923 P   0  0  0  0  0  0
   -1.3437    6.8559    2.9743 O   0  0  0  0  0  0
   -1.0451    4.3165    2.6956 O   0  0  0  0  0  0
   -2.1522    8.1203    3.9383 P   0  0  0  0  0  0
   -1.7577    9.4172    3.1973 O   0  0  0  0  0  0
    2.2318   -0.8344    0.4974 H   0  0  0  0  0  0
    4.2380    2.3503    1.3209 H   0  0  0  0  0  0
    3.6429   -0.8408    2.9166 H   0  0  0  0  0  0
    5.5836   -3.3806   -1.2947 H   0  0  0  0  0  0
    0.3324    1.0187    2.5023 H   0  0  0  0  0  0
    3.2091    1.4244    3.4171 H   0  0  0  0  0  0
    1.7468   -1.6634    3.8654 H   0  0  0  0  0  0
    8.9076   -0.4158   -1.7021 H   0  0  0  0  0  0
    8.3677    1.0682   -0.9399 H   0  0  0  0  0  0
    0.2909    3.3586    2.0596 H   0  0  0  0  0  0
    1.2180    3.2857    3.5453 H   0  0  0  0  0  0
    2.4321    0.0823    5.1248 H   0  0  0  0  0  0
    2.0926    4.9059   -0.3325 O   0  5  0  0  0  0
    0.5126    5.5997    4.2524 O   0  5  0  0  0  0
   -3.6396    7.7102    3.8441 O   0  5  0  0  0  0
   -1.4958    7.9202    5.3239 O   0  5  0  0  0  0
  1  2  1  0  0  0
  1  3  1  0  0  0
  1  4  1  0  0  0
  2  5  2  0  0  0
  2  6  1  0  0  0
  3  7  1  0  0  0
  3  8  1  0  0  0
  3 28  1  0  0  0
  4  9  2  0  0  0
  4 29  1  0  0  0
  5 10  1  0  0  0
  5  9  1  0  0  0
  6 11  2  0  0  0
  7 12  1  0  0  0
  8 13  1  0  0  0
  8 14  1  0  0  0
  8 30  1  0  0  0
 10 15  2  0  0  0
 10 16  1  0  0  0
 11 15  1  0  0  0
 11 31  1  0  0  0
 12 17  1  0  0  0
 12 13  1  0  0  0
 12 32  1  0  0  0
 13 18  1  0  0  0
 13 33  1  0  0  0
 14 34  1  0  0  0
 16 35  1  0  0  0
 16 36  1  0  0  0
 17 19  1  0  0  0
 17 37  1  0  0  0
 17 38  1  0  0  0
 18 39  1  0  0  0
 19 20  1  0  0  0
 20 21  1  0  0  0
 20 22  2  0  0  0
 20 40  1  0  0  0
 21 23  1  0  0  0
 23 24  1  0  0  0
 23 25  2  0  0  0
 23 41  1  0  0  0
 24 26  1  0  0  0
 26 27  2  0  0  0
 26 42  1  0  0  0
 26 43  1  0  0  0
M  CHG  4  40  -1  41  -1  42  -1  43  -1
M  END
> <i_ionizer_Ion_state_n>
30

> <i_ionizer_Tot_Q>
-4

> <s_ionizer_Ion_centers>
40_41_42_43

> <s_ionizer_Ion_types>
OM_OM_OM_OM

> <s_ionizer_Ion_ctrs_in>
22_26_29_30

> <r_ionizer_Ionization_penalty>
4.85714e-05

> <r_ionizer_Ionization_penalty_charging>
2.98356e-05

> <r_ionizer_Ionization_penalty_neutral>
1.87357e-05

> <s_st_Chirality_1>
3_R_7_1_8_28

> <s_st_Chirality_2>
8_R_14_3_13_30

> <s_st_Chirality_3>
12_R_7_13_17_32

> <s_st_Chirality_4>
13_R_18_8_12_33

> <i_mmod_Serial_Number-OPLS-2005>
2

> <i_i_glide_lignum>
2

> <r_i_docking_score>
-3.40791

> <r_i_glide_gscore>
-3.40791

> <r_i_glide_lipo>
-0.617835

> <r_i_glide_hbond>
-1.06829

> <r_i_glide_metal>
0

> <r_i_glide_eburp>
9.15067e-17

> <r_i_glide_evdw>
-24.9583

> <r_i_glide_ecoul>
5.2559

> <r_i_glide_erotb>
0.645842

> <r_i_glide_esite>
-0.896552

> <r_i_glide_emodel>
-49.6265

> <r_i_glide_energy>
-19.7024

> <r_i_glide_einternal>
5.93078

> <i_i_glide_confnum>
267

> <i_i_glide_posenum>
559

$$$$
C08062
                    3D
 Structure written by MMmdl.
 27 27  0  0  1  0            999 V2000
   -0.1809    6.0802    1.9348 C   0  0  0  0  0  0
    0.2490    4.9492    2.8273 C   0  0  0  0  0  0
    0.6650    6.6392    0.9298 C   0  0  0  0  0  0
   -1.4879    6.6114    2.0819 C   0  0  0  0  0  0
   -0.4911    3.6736    2.6813 C   0  0  0  0  0  0
    1.1992    5.0562    3.6044 O   0  0  0  0  0  0
    0.1984    7.6965    0.1203 C   0  0  0  0  0  0
    1.9117    6.1930    0.6955 N   0  0  0  0  0  0
   -1.9428    7.6658    1.2689 C   0  0  0  0  0  0
    0.0196    2.4338    2.8443 C   0  0  0  0  0  0
   -1.0992    8.2100    0.2870 C   0  0  0  0  0  0
    1.3807    2.0868    3.2392 C   0  0  0  0  0  0
    1.9629    0.8669    3.2023 C   0  0  0  0  0  0
    1.3638   -0.4997    2.7042 C   0  0  0  0  0  0
    3.2205    0.7807    3.6563 O   0  0  0  0  0  0
    0.1994   -0.5057    2.2511 O   0  0  0  0  0  0
   -2.1626    6.2307    2.8346 H   0  0  0  0  0  0
   -1.5369    3.7523    2.4222 H   0  0  0  0  0  0
    0.8365    8.1203   -0.6419 H   0  0  0  0  0  0
    2.5400    6.7203    0.1069 H   0  0  0  0  0  0
    2.3454    5.5659    1.3604 H   0  0  0  0  0  0
   -2.9401    8.0587    1.4019 H   0  0  0  0  0  0
   -0.6869    1.6367    2.6833 H   0  0  0  0  0  0
   -1.4464    9.0193   -0.3384 H   0  0  0  0  0  0
    2.0011    2.8800    3.6280 H   0  0  0  0  0  0
    3.3498   -0.1259    3.8991 H   0  0  0  0  0  0
    2.1351   -1.4812    2.7960 O   0  5  0  0  0  0
  1  2  1  0  0  0
  1  3  1  0  0  0
  1  4  2  0  0  0
  2  5  1  0  0  0
  2  6  2  0  0  0
  3  7  2  0  0  0
  3  8  1  0  0  0
  4  9  1  0  0  0
  4 17  1  0  0  0
  5 10  2  0  0  0
  5 18  1  0  0  0
  7 11  1  0  0  0
  7 19  1  0  0  0
  8 20  1  0  0  0
  8 21  1  0  0  0
  9 11  2  0  0  0
  9 22  1  0  0  0
 10 12  1  0  0  0
 10 23  1  0  0  0
 11 24  1  0  0  0
 12 13  2  0  0  0
 12 25  1  0  0  0
 13 14  1  0  0  0
 13 15  1  0  0  0
 14 16  2  0  0  0
 14 27  1  0  0  0
 15 26  1  0  0  0
M  CHG  1  27  -1
M  END
> <i_ionizer_Ion_state_n>
2

> <i_ionizer_Tot_Q>
-1

> <s_ionizer_Ion_centers>
27

> <s_ionizer_Ion_types>
OM

> <s_ionizer_Ion_ctrs_in>
16

> <r_ionizer_Ionization_penalty>
0.00246284

> <r_ionizer_Ionization_penalty_charging>
0.00059219

> <r_ionizer_Ionization_penalty_neutral>
0.00187065

> <s_st_EZ_1>
2_5_10_12_Z

> <i_mmod_Serial_Number-OPLS-2005>
912

> <i_i_glide_lignum>
900

> <r_i_docking_score>
-3.40427

> <r_i_glide_gscore>
-3.40427

> <r_i_glide_lipo>
-0.941781

> <r_i_glide_hbond>
-0.303105

> <r_i_glide_metal>
0

> <r_i_glide_eburp>
-2.02865

> <r_i_glide_evdw>
-26.7349

> <r_i_glide_ecoul>
-2.77291

> <r_i_glide_erotb>
1.81472

> <r_i_glide_esite>
0.470631

> <r_i_glide_emodel>
-47.0348

> <r_i_glide_energy>
-29.5078

> <r_i_glide_einternal>
3.43114

> <i_i_glide_confnum>
59

> <i_i_glide_posenum>
239

$$$$
C00014
                    3D
 Structure written by MMmdl.
  4  3  0  0  1  0            999 V2000
    2.5003   -0.3002    4.6999 N   0  0  0  0  0  0
    1.8996   -0.7875    4.0505 H   0  0  0  0  0  0
    3.4109   -0.7371    4.7098 H   0  0  0  0  0  0
    2.0978   -0.3387    5.6254 H   0  0  0  0  0  0
  1  2  1  0  0  0
  1  3  1  0  0  0
  1  4  1  0  0  0
M  END
> <i_ionizer_Ion_state_n>
0

> <i_ionizer_Tot_Q>
0

> <s_ionizer_Ion_centers>


> <s_ionizer_Ion_types>


> <s_ionizer_Ion_ctrs_in>


> <r_ionizer_Ionization_penalty>
0

> <r_ionizer_Ionization_penalty_charging>
0

> <r_ionizer_Ionization_penalty_neutral>
0

> <i_mmod_Serial_Number-OPLS-2005>
12

> <i_i_glide_lignum>
12

> <r_i_docking_score>
-3.39537

> <r_i_glide_gscore>
-3.39537

> <r_i_glide_lipo>
0

> <r_i_glide_hbond>
-0.535608

> <r_i_glide_metal>
0

> <r_i_glide_eburp>
-2.5

> <r_i_glide_evdw>
-2.87493

> <r_i_glide_ecoul>
-2.09032

> <r_i_glide_erotb>
0

> <r_i_glide_esite>
0.0792607

> <r_i_glide_emodel>
-5.82307

> <r_i_glide_energy>
-4.96525

> <r_i_glide_einternal>
0

> <i_i_glide_confnum>
1

> <i_i_glide_posenum>
434

$$$$
C00857
                    3D
 Structure written by MMmdl.
 68 72  0  0  1  0            999 V2000
    0.5469    4.8184    2.3497 N   0  0  0  0  0  0
    1.5241    3.9447    2.7705 C   0  0  0  0  0  0
    0.7559    6.2548    1.9928 C   0  0  2  0  0  0
   -0.6158    4.0769    2.3375 C   0  0  0  0  0  0
    0.8671    2.7028    2.9853 C   0  0  0  0  0  0
    2.8548    4.1903    2.9481 N   0  0  0  0  0  0
   -0.1127    7.0168    2.7803 O   0  0  0  0  0  0
    0.3612    6.4727    0.5283 C   0  0  1  0  0  0
   -0.4864    2.8280    2.6999 N   0  0  0  0  0  0
    1.6937    1.6391    3.4262 C   0  0  0  0  0  0
    3.5026    3.0980    3.3637 C   0  0  0  0  0  0
   -1.1179    7.6399    1.9807 C   0  0  1  0  0  0
   -1.1005    6.8718    0.6570 C   0  0  1  0  0  0
    1.1535    7.4819   -0.0683 O   0  0  0  0  0  0
    3.0142    1.8763    3.6052 N   0  0  0  0  0  0
    1.2301    0.4071    3.6741 N   0  0  0  0  0  0
   -2.4695    7.6150    2.7247 C   0  0  0  0  0  0
   -1.5368    7.6418   -0.4484 O   0  0  0  0  0  0
   -2.4313    8.2643    3.9838 O   0  0  0  0  0  0
   -3.8310    8.5125    4.9269 P   0  0  0  0  0  0
   -4.6231    9.8405    4.2125 O   0  0  0  0  0  0
   -4.7019    7.3249    4.7640 O   0  0  0  0  0  0
   -4.9187   11.4749    4.6018 P   0  0  0  0  0  0
   -3.5300   12.3347    4.1220 O   0  0  0  0  0  0
   -6.0480   11.9535    3.7719 O   0  0  0  0  0  0
   -3.4793   13.7445    4.2126 C   0  0  0  0  0  0
   -2.0444   14.2031    4.4986 C   0  0  1  0  0  0
   -1.2190   13.8942    3.3814 O   0  0  0  0  0  0
   -1.9060   15.7183    4.6609 C   0  0  2  0  0  0
   -0.2471   14.8729    3.1768 C   0  0  2  0  0  0
   -0.4713   15.9829    4.2147 C   0  0  2  0  0  0
   -2.1682   16.1578    5.9803 O   0  0  0  0  0  0
   -0.4114   15.4169    1.7868 N   0  3  0  0  0  0
    0.4622   15.8860    5.2770 O   0  0  0  0  0  0
    0.7161   15.5588    0.9339 C   0  0  0  0  0  0
   -1.6686   15.8465    1.2781 C   0  0  0  0  0  0
    0.6062   16.0936   -0.3689 C   0  0  0  0  0  0
   -1.7952   16.3662   -0.0219 C   0  0  0  0  0  0
   -0.6620   16.4915   -0.8427 C   0  0  0  0  0  0
    1.8279   16.2373   -1.2331 C   0  0  0  0  0  0
    1.7300   16.8699   -2.3081 O   0  0  0  0  0  0
    1.8052    6.4484    2.2201 H   0  0  0  0  0  0
   -1.5695    4.4936    2.0486 H   0  0  0  0  0  0
    0.4834    5.5591   -0.0555 H   0  0  0  0  0  0
    4.5636    3.2178    3.5264 H   0  0  0  0  0  0
   -0.7806    8.6595    1.8038 H   0  0  0  0  0  0
   -1.7135    5.9731    0.7388 H   0  0  0  0  0  0
    0.8966    8.3080    0.3150 H   0  0  0  0  0  0
    1.8629   -0.3148    3.9861 H   0  0  0  0  0  0
    0.2483    0.2078    3.5472 H   0  0  0  0  0  0
   -3.2536    8.0813    2.1273 H   0  0  0  0  0  0
   -2.7901    6.5866    2.8909 H   0  0  0  0  0  0
   -1.2731    8.5467   -0.3101 H   0  0  0  0  0  0
   -3.8573   14.1982    3.2968 H   0  0  0  0  0  0
   -4.1420   14.0549    5.0208 H   0  0  0  0  0  0
   -1.6401   13.6950    5.3757 H   0  0  0  0  0  0
   -2.5902   16.2290    3.9824 H   0  0  0  0  0  0
    0.7523   14.4362    3.1956 H   0  0  0  0  0  0
   -0.3644   16.9699    3.7617 H   0  0  0  0  0  0
   -1.5932   15.6963    6.5712 H   0  0  0  0  0  0
    0.3583   15.0504    5.7063 H   0  0  0  0  0  0
    1.6713   15.2451    1.3296 H   0  0  0  0  0  0
   -2.5360   15.7430    1.9106 H   0  0  0  0  0  0
   -2.7664   16.6648   -0.3889 H   0  0  0  0  0  0
   -0.7755   16.8965   -1.8383 H   0  0  0  0  0  0
   -3.3932    8.8956    6.2867 O   0  5  0  0  0  0
   -5.0182   11.5744    6.0754 O   0  5  0  0  0  0
    2.9006   15.7165   -0.8550 O   0  5  0  0  0  0
  1  2  1  0  0  0
  1  3  1  0  0  0
  1  4  1  0  0  0
  2  5  2  0  0  0
  2  6  1  0  0  0
  3  7  1  0  0  0
  3  8  1  0  0  0
  3 42  1  0  0  0
  4  9  2  0  0  0
  4 43  1  0  0  0
  5 10  1  0  0  0
  5  9  1  0  0  0
  6 11  2  0  0  0
  7 12  1  0  0  0
  8 13  1  0  0  0
  8 14  1  0  0  0
  8 44  1  0  0  0
 10 15  2  0  0  0
 10 16  1  0  0  0
 11 15  1  0  0  0
 11 45  1  0  0  0
 12 17  1  0  0  0
 12 13  1  0  0  0
 12 46  1  0  0  0
 13 18  1  0  0  0
 13 47  1  0  0  0
 14 48  1  0  0  0
 16 49  1  0  0  0
 16 50  1  0  0  0
 17 19  1  0  0  0
 17 51  1  0  0  0
 17 52  1  0  0  0
 18 53  1  0  0  0
 19 20  1  0  0  0
 20 21  1  0  0  0
 20 22  2  0  0  0
 20 66  1  0  0  0
 21 23  1  0  0  0
 23 24  1  0  0  0
 23 25  2  0  0  0
 23 67  1  0  0  0
 24 26  1  0  0  0
 26 27  1  0  0  0
 26 54  1  0  0  0
 26 55  1  0  0  0
 27 28  1  0  0  0
 27 29  1  0  0  0
 27 56  1  0  0  0
 28 30  1  0  0  0
 29 31  1  0  0  0
 29 32  1  0  0  0
 29 57  1  0  0  0
 30 33  1  0  0  0
 30 31  1  0  0  0
 30 58  1  0  0  0
 31 34  1  0  0  0
 31 59  1  0  0  0
 32 60  1  0  0  0
 33 35  1  0  0  0
 33 36  2  0  0  0
 34 61  1  0  0  0
 35 37  2  0  0  0
 35 62  1  0  0  0
 36 38  1  0  0  0
 36 63  1  0  0  0
 37 39  1  0  0  0
 37 40  1  0  0  0
 38 39  2  0  0  0
 38 64  1  0  0  0
 39 65  1  0  0  0
 40 41  2  0  0  0
 40 68  1  0  0  0
M  CHG  4  33   1  66  -1  67  -1  68  -1
M  END
> <i_ionizer_Ion_state_n>
14

> <i_ionizer_Tot_Q>
-2

> <s_ionizer_Ion_centers>
66_67_68

> <s_ionizer_Ion_types>
OM_OM_OM

> <s_ionizer_Ion_ctrs_in>
22_26_43

> <r_ionizer_Ionization_penalty>
0.000625843

> <r_ionizer_Ionization_penalty_charging>
0.000607108

> <r_ionizer_Ionization_penalty_neutral>
1.87357e-05

> <s_st_Chirality_1>
3_R_7_1_8_42

> <s_st_Chirality_2>
8_R_14_3_13_44

> <s_st_Chirality_3>
12_R_7_13_17_46

> <s_st_Chirality_4>
13_R_18_8_12_47

> <s_st_Chirality_5>
27_R_28_29_26_56

> <s_st_Chirality_6>
29_R_32_31_27_57

> <s_st_Chirality_7>
30_R_28_33_31_58

> <s_st_Chirality_8>
31_R_34_30_29_59

> <i_mmod_Serial_Number-OPLS-2005>
347

> <i_i_glide_lignum>
344

> <r_i_docking_score>
-3.39139

> <r_i_glide_gscore>
-3.39139

> <r_i_glide_lipo>
-0.725603

> <r_i_glide_hbond>
-0.850199

> <r_i_glide_metal>
0

> <r_i_glide_eburp>
-2.28225e-17

> <r_i_glide_evdw>
-30.2058

> <r_i_glide_ecoul>
-4.08643

> <r_i_glide_erotb>
0.374349

> <r_i_glide_esite>
0.635172

> <r_i_glide_emodel>
-63.7235

> <r_i_glide_energy>
-34.2923

> <r_i_glide_einternal>
3.75227

> <i_i_glide_confnum>
351

> <i_i_glide_posenum>
230

$$$$
C03561
                    3D
 Structure written by MMmdl.
 92 94  0  0  1  0            999 V2000
    9.0903   10.0697   14.6740 N   0  0  0  0  0  0
    9.1581   11.3193   13.8540 C   0  0  2  0  0  0
    8.0241    9.1989   14.7160 C   0  0  0  0  0  0
   10.0340    9.5181   15.5164 C   0  0  0  0  0  0
    9.9069   11.0402   12.7046 O   0  0  0  0  0  0
    9.8977   12.4194   14.6282 C   0  0  1  0  0  0
    8.4012    8.1659   15.6164 C   0  0  0  0  0  0
    6.8385    9.2822   14.0448 N   0  0  0  0  0  0
    9.6805    8.4036   16.1005 N   0  0  0  0  0  0
   11.1153   11.8001   12.6846 C   0  0  1  0  0  0
   10.7904   13.0166   13.5575 C   0  0  1  0  0  0
    9.0652   13.4432   15.1296 O   0  0  0  0  0  0
    7.4372    7.1474   15.8228 C   0  0  0  0  0  0
    6.0343    8.2569   14.3392 C   0  0  0  0  0  0
   12.2839   10.9500   13.2105 C   0  0  0  0  0  0
   10.0380   13.9728   12.8114 O   0  0  0  0  0  0
    6.2582    7.2272   15.1629 N   0  0  0  0  0  0
    7.6383    6.1057   16.6405 N   0  0  0  0  0  0
   13.4968   11.6466   13.0221 O   0  0  0  0  0  0
   10.8890   14.8505   11.4941 P   0  0  0  0  0  0
   14.9517   10.8230   12.7230 P   0  0  0  0  0  0
   11.7233   15.9059   12.2554 O   0  0  0  0  0  0
   14.6914    9.2684   13.3593 O   0  0  0  0  0  0
   15.1162   10.6913   11.2563 O   0  0  0  0  0  0
   15.6643    7.9160   13.6982 P   0  0  0  0  0  0
   15.5460    6.9554   12.2922 O   0  0  0  0  0  0
   17.0643    8.3774   13.8468 O   0  0  0  0  0  0
   16.6454    6.7574   11.4165 C   0  0  0  0  0  0
   16.3215    7.2587    9.9816 C   0  0  0  0  0  0
   14.9194    6.6932    9.5519 C   0  0  2  0  0  0
   16.3356    8.8064    9.9517 C   0  0  0  0  0  0
   17.4506    6.7204    9.0687 C   0  0  0  0  0  0
   14.6509    5.1811    9.7152 C   0  0  0  0  0  0
   14.6556    7.0221    8.2011 O   0  0  0  0  0  0
   13.3564    4.8414    9.8126 N   0  0  0  0  0  0
   15.5546    4.3462    9.7538 O   0  0  0  0  0  0
   12.8571    3.4950   10.0487 C   0  0  0  0  0  0
   12.6418    2.7671    8.7107 C   0  0  0  0  0  0
   11.7752    1.5112    8.8411 C   0  0  0  0  0  0
   11.0456    1.1809    7.7661 N   0  0  0  0  0  0
   11.7616    0.8618    9.8872 O   0  0  0  0  0  0
   10.1222    0.0559    7.7150 C   0  0  0  0  0  0
    8.6870    0.5414    7.4830 C   0  0  0  0  0  0
    7.6725   -0.7491    6.7050 S   0  0  0  0  0  0
    6.3572    0.2916    6.0241 C   0  0  0  0  0  0
    6.0857    0.1187    4.5284 C   0  0  0  0  0  0
    5.7106    1.0899    6.7012 O   0  0  0  0  0  0
    4.7095    0.6687    4.1033 C   0  0  1  0  0  0
    4.3923    0.3542    2.6355 C   0  0  0  0  0  0
    3.6948    0.0936    4.9032 O   0  0  0  0  0  0
    8.1253   11.5585   13.5974 H   0  0  0  0  0  0
   11.0022    9.9644   15.6883 H   0  0  0  0  0  0
   10.4943   11.9794   15.4290 H   0  0  0  0  0  0
   11.3388   12.0772   11.6556 H   0  0  0  0  0  0
   11.6733   13.4769   13.9954 H   0  0  0  0  0  0
    8.5633   13.7572   14.3887 H   0  0  0  0  0  0
    5.0738    8.2615   13.8454 H   0  0  0  0  0  0
   12.1629   10.6988   14.2641 H   0  0  0  0  0  0
   12.3335   10.0125   12.6564 H   0  0  0  0  0  0
    6.9170    5.4090   16.7541 H   0  0  0  0  0  0
    8.5087    6.0305   17.1470 H   0  0  0  0  0  0
   17.5071    7.2874   11.8238 H   0  0  0  0  0  0
   16.9216    5.7048   11.4183 H   0  0  0  0  0  0
   14.1551    7.1966   10.1463 H   0  0  0  0  0  0
   16.1122    9.2039    8.9629 H   0  0  0  0  0  0
   15.6069    9.2265   10.6455 H   0  0  0  0  0  0
   17.3116    9.2007   10.2351 H   0  0  0  0  0  0
   17.4077    7.1200    8.0575 H   0  0  0  0  0  0
   18.4341    6.9883    9.4559 H   0  0  0  0  0  0
   17.4167    5.6329    8.9973 H   0  0  0  0  0  0
   15.2443    6.5256    7.6422 H   0  0  0  0  0  0
   12.6742    5.5723    9.6612 H   0  0  0  0  0  0
   13.5726    2.9483   10.6658 H   0  0  0  0  0  0
   11.9226    3.5546   10.6091 H   0  0  0  0  0  0
   12.1702    3.4384    7.9920 H   0  0  0  0  0  0
   13.6095    2.4880    8.2900 H   0  0  0  0  0  0
   11.1386    1.7446    6.9332 H   0  0  0  0  0  0
   10.4220   -0.6216    6.9138 H   0  0  0  0  0  0
   10.1808   -0.5033    8.6503 H   0  0  0  0  0  0
    8.2318    0.8268    8.4324 H   0  0  0  0  0  0
    8.6902    1.4249    6.8432 H   0  0  0  0  0  0
    6.8733    0.6506    3.9935 H   0  0  0  0  0  0
    6.1819   -0.9313    4.2489 H   0  0  0  0  0  0
    4.6820    1.7505    4.2441 H   0  0  0  0  0  0
    5.1350    0.7974    1.9715 H   0  0  0  0  0  0
    3.4179    0.7506    2.3480 H   0  0  0  0  0  0
    4.3828   -0.7209    2.4525 H   0  0  0  0  0  0
    3.9566   -0.7835    5.1390 H   0  0  0  0  0  0
   11.6826   13.7099   10.8199 O   0  5  0  0  0  0
    9.6984   15.4079   10.6828 O   0  5  0  0  0  0
   16.0176   11.4791   13.5135 O   0  5  0  0  0  0
   15.0314    7.1686   14.8090 O   0  5  0  0  0  0
  1  2  1  0  0  0
  1  3  1  0  0  0
  1  4  1  0  0  0
  2  5  1  0  0  0
  2  6  1  0  0  0
  2 51  1  0  0  0
  3  7  2  0  0  0
  3  8  1  0  0  0
  4  9  2  0  0  0
  4 52  1  0  0  0
  5 10  1  0  0  0
  6 11  1  0  0  0
  6 12  1  0  0  0
  6 53  1  0  0  0
  7 13  1  0  0  0
  7  9  1  0  0  0
  8 14  2  0  0  0
 10 15  1  0  0  0
 10 11  1  0  0  0
 10 54  1  0  0  0
 11 16  1  0  0  0
 11 55  1  0  0  0
 12 56  1  0  0  0
 13 17  2  0  0  0
 13 18  1  0  0  0
 14 17  1  0  0  0
 14 57  1  0  0  0
 15 19  1  0  0  0
 15 58  1  0  0  0
 15 59  1  0  0  0
 16 20  1  0  0  0
 18 60  1  0  0  0
 18 61  1  0  0  0
 19 21  1  0  0  0
 20 22  2  0  0  0
 20 89  1  0  0  0
 20 90  1  0  0  0
 21 23  1  0  0  0
 21 24  2  0  0  0
 21 91  1  0  0  0
 23 25  1  0  0  0
 25 26  1  0  0  0
 25 27  2  0  0  0
 25 92  1  0  0  0
 26 28  1  0  0  0
 28 29  1  0  0  0
 28 62  1  0  0  0
 28 63  1  0  0  0
 29 30  1  0  0  0
 29 31  1  0  0  0
 29 32  1  0  0  0
 30 33  1  0  0  0
 30 34  1  0  0  0
 30 64  1  0  0  0
 31 65  1  0  0  0
 31 66  1  0  0  0
 31 67  1  0  0  0
 32 68  1  0  0  0
 32 69  1  0  0  0
 32 70  1  0  0  0
 33 35  1  0  0  0
 33 36  2  0  0  0
 34 71  1  0  0  0
 35 37  1  0  0  0
 35 72  1  0  0  0
 37 38  1  0  0  0
 37 73  1  0  0  0
 37 74  1  0  0  0
 38 39  1  0  0  0
 38 75  1  0  0  0
 38 76  1  0  0  0
 39 40  1  0  0  0
 39 41  2  0  0  0
 40 42  1  0  0  0
 40 77  1  0  0  0
 42 43  1  0  0  0
 42 78  1  0  0  0
 42 79  1  0  0  0
 43 44  1  0  0  0
 43 80  1  0  0  0
 43 81  1  0  0  0
 44 45  1  0  0  0
 45 46  1  0  0  0
 45 47  2  0  0  0
 46 48  1  0  0  0
 46 82  1  0  0  0
 46 83  1  0  0  0
 48 49  1  0  0  0
 48 50  1  0  0  0
 48 84  1  0  0  0
 49 85  1  0  0  0
 49 86  1  0  0  0
 49 87  1  0  0  0
 50 88  1  0  0  0
M  CHG  4  89  -1  90  -1  91  -1  92  -1
M  END
> <i_ionizer_Ion_state_n>
30

> <i_ionizer_Tot_Q>
-4

> <s_ionizer_Ion_centers>
89_90_91_92

> <s_ionizer_Ion_types>
OM_OM_OM_OM

> <s_ionizer_Ion_ctrs_in>
22_23_26_30

> <r_ionizer_Ionization_penalty>
4.85714e-05

> <r_ionizer_Ionization_penalty_charging>
2.98356e-05

> <r_ionizer_Ionization_penalty_neutral>
1.87357e-05

> <s_st_Chirality_1>
2_R_5_1_6_51

> <s_st_Chirality_2>
6_R_12_2_11_53

> <s_st_Chirality_3>
10_R_5_11_15_54

> <s_st_Chirality_4>
11_R_16_6_10_55

> <s_st_Chirality_5>
48_R_50_46_49_84

> <s_st_Chirality_6>
30_R_34_33_29_64

> <i_mmod_Serial_Number-OPLS-2005>
554

> <i_i_glide_lignum>
548

> <r_i_docking_score>
-3.38718

> <r_i_glide_gscore>
-3.38718

> <r_i_glide_lipo>
-0.75436

> <r_i_glide_hbond>
-2.23268

> <r_i_glide_metal>
0

> <r_i_glide_eburp>
0.232678

> <r_i_glide_evdw>
-2.77919

> <r_i_glide_ecoul>
-6.71436

> <r_i_glide_erotb>
0.555565

> <r_i_glide_esite>
-0.294615

> <r_i_glide_emodel>
-30.4799

> <r_i_glide_energy>
-9.49355

> <r_i_glide_einternal>
16.1548

> <i_i_glide_confnum>
832

> <i_i_glide_posenum>
127

$$$$
C05959
                    3D
 Structure written by MMmdl.
 58 58  0  0  1  0            999 V2000
    2.4741    0.9206    2.3844 C   0  0  2  0  0  0
    2.7950    1.7907    3.6121 C   0  0  2  0  0  0
    1.9442   -0.4047    2.9892 C   0  0  2  0  0  0
    3.6202    0.7847    1.3554 C   0  0  0  0  0  0
    1.6713    1.4323    4.6057 C   0  0  2  0  0  0
    2.9995    3.2739    3.3114 C   0  0  0  0  0  0
    1.5054   -0.0817    4.4330 C   0  0  0  0  0  0
    2.9269   -1.4230    3.0372 O   0  0  0  0  0  0
    3.1920    0.0264    0.1091 C   0  0  0  0  0  0
    0.4407    2.0474    4.2622 O   0  0  0  0  0  0
    2.7597    3.8923    2.1384 C   0  0  0  0  0  0
    3.7290   -1.1005   -0.3955 C   0  0  0  0  0  0
    2.9653    5.3669    1.8210 C   0  0  2  0  0  0
    4.8912   -1.9049    0.1597 C   0  0  0  0  0  0
    1.7013    6.1129    1.3317 C   0  0  0  0  0  0
    4.0041    5.4785    0.8728 O   0  0  0  0  0  0
    5.9680   -2.1592   -0.9042 C   0  0  0  0  0  0
    0.4769    6.0174    2.2647 C   0  0  0  0  0  0
    6.6882   -0.8643   -1.3302 C   0  0  0  0  0  0
   -0.6528    7.0150    1.9560 C   0  0  0  0  0  0
    7.6077   -0.2951   -0.2418 C   0  0  0  0  0  0
   -1.8203    6.9038    2.9473 C   0  0  0  0  0  0
    8.2317   -1.0899    0.4964 O   0  0  0  0  0  0
   -2.9414    7.9061    2.6512 C   0  0  0  0  0  0
    1.6349    1.3971    1.8739 H   0  0  0  0  0  0
    3.7378    1.4338    4.0299 H   0  0  0  0  0  0
    1.1030   -0.7706    2.3992 H   0  0  0  0  0  0
    3.9331    1.7719    1.0182 H   0  0  0  0  0  0
    4.4994    0.3467    1.8227 H   0  0  0  0  0  0
    1.9297    1.6978    5.6315 H   0  0  0  0  0  0
    3.3624    3.8547    4.1439 H   0  0  0  0  0  0
    0.4903   -0.4225    4.6419 H   0  0  0  0  0  0
    2.1550   -0.5844    5.1519 H   0  0  0  0  0  0
    3.5854   -1.1782    3.6691 H   0  0  0  0  0  0
    2.3580    0.4636   -0.4203 H   0  0  0  0  0  0
    0.2437    1.8459    3.3601 H   0  0  0  0  0  0
    2.3811    3.3121    1.3102 H   0  0  0  0  0  0
    3.2976   -1.4991   -1.3022 H   0  0  0  0  0  0
    3.3119    5.8335    2.7436 H   0  0  0  0  0  0
    5.3376   -1.4216    1.0258 H   0  0  0  0  0  0
    4.4954   -2.8559    0.5170 H   0  0  0  0  0  0
    1.3939    5.6667    0.3851 H   0  0  0  0  0  0
    1.9285    7.1569    1.1112 H   0  0  0  0  0  0
    4.8092    5.6653    1.3310 H   0  0  0  0  0  0
    6.6953   -2.8743   -0.5162 H   0  0  0  0  0  0
    5.5057   -2.6267   -1.7751 H   0  0  0  0  0  0
    0.0690    5.0097    2.1763 H   0  0  0  0  0  0
    0.7928    6.1191    3.3036 H   0  0  0  0  0  0
    7.2870   -1.0485   -2.2228 H   0  0  0  0  0  0
    5.9555   -0.1008   -1.5933 H   0  0  0  0  0  0
   -0.2698    8.0344    1.9811 H   0  0  0  0  0  0
   -1.0215    6.8456    0.9437 H   0  0  0  0  0  0
   -2.2282    5.8927    2.9224 H   0  0  0  0  0  0
   -1.4546    7.0641    3.9622 H   0  0  0  0  0  0
   -3.7543    7.8033    3.3703 H   0  0  0  0  0  0
   -2.5769    8.9323    2.7059 H   0  0  0  0  0  0
   -3.3566    7.7499    1.6552 H   0  0  0  0  0  0
    7.6689    0.9514   -0.1683 O   0  5  0  0  0  0
  1  2  1  0  0  0
  1  3  1  0  0  0
  1  4  1  0  0  0
  1 25  1  0  0  0
  2  5  1  0  0  0
  2  6  1  0  0  0
  2 26  1  0  0  0
  3  7  1  0  0  0
  3  8  1  0  0  0
  3 27  1  0  0  0
  4  9  1  0  0  0
  4 28  1  0  0  0
  4 29  1  0  0  0
  5 10  1  0  0  0
  5  7  1  0  0  0
  5 30  1  0  0  0
  6 11  2  0  0  0
  6 31  1  0  0  0
  7 32  1  0  0  0
  7 33  1  0  0  0
  8 34  1  0  0  0
  9 12  2  0  0  0
  9 35  1  0  0  0
 10 36  1  0  0  0
 11 13  1  0  0  0
 11 37  1  0  0  0
 12 14  1  0  0  0
 12 38  1  0  0  0
 13 15  1  0  0  0
 13 16  1  0  0  0
 13 39  1  0  0  0
 14 17  1  0  0  0
 14 40  1  0  0  0
 14 41  1  0  0  0
 15 18  1  0  0  0
 15 42  1  0  0  0
 15 43  1  0  0  0
 16 44  1  0  0  0
 17 19  1  0  0  0
 17 45  1  0  0  0
 17 46  1  0  0  0
 18 20  1  0  0  0
 18 47  1  0  0  0
 18 48  1  0  0  0
 19 21  1  0  0  0
 19 49  1  0  0  0
 19 50  1  0  0  0
 20 22  1  0  0  0
 20 51  1  0  0  0
 20 52  1  0  0  0
 21 23  2  0  0  0
 21 58  1  0  0  0
 22 24  1  0  0  0
 22 53  1  0  0  0
 22 54  1  0  0  0
 24 55  1  0  0  0
 24 56  1  0  0  0
 24 57  1  0  0  0
M  CHG  1  58  -1
M  END
> <i_ionizer_Ion_state_n>
1

> <i_ionizer_Tot_Q>
-1

> <s_ionizer_Ion_centers>
58

> <s_ionizer_Ion_types>
OM

> <s_ionizer_Ion_ctrs_in>
23

> <r_ionizer_Ionization_penalty>
0.00059219

> <r_ionizer_Ionization_penalty_charging>
0.00059219

> <r_ionizer_Ionization_penalty_neutral>
0

> <s_st_Chirality_1>
1_R_3_2_4_25

> <s_st_Chirality_2>
2_R_5_1_6_26

> <s_st_Chirality_3>
3_S_8_1_7_27

> <s_st_Chirality_4>
5_S_10_2_7_30

> <s_st_Chirality_5>
13_S_16_11_15_39

> <s_st_EZ_1>
2_6_11_13_E

> <s_st_EZ_2>
4_9_12_14_Z

> <i_mmod_Serial_Number-OPLS-2005>
837

> <i_i_glide_lignum>
825

> <r_i_docking_score>
-3.37887

> <r_i_glide_gscore>
-3.37887

> <r_i_glide_lipo>
-1.65225

> <r_i_glide_hbond>
-0.370309

> <r_i_glide_metal>
0

> <r_i_glide_eburp>
-1.10998

> <r_i_glide_evdw>
-6.29308

> <r_i_glide_ecoul>
-6.77769

> <r_i_glide_erotb>
1.74674

> <r_i_glide_esite>
-0.811855

> <r_i_glide_emodel>
-27.0121

> <r_i_glide_energy>
-13.0708

> <r_i_glide_einternal>
4.95

> <i_i_glide_confnum>
202

> <i_i_glide_posenum>
393

$$$$
C01013
                    3D
 Structure written by MMmdl.
 11 10  0  0  1  0            999 V2000
    0.3199    2.0622    2.6975 C   0  0  0  0  0  0
   -0.2996    3.3969    3.1310 C   0  0  0  0  0  0
    1.0493    1.3376    3.8436 C   0  0  0  0  0  0
   -1.4349    3.7007    2.7006 O   0  0  0  0  0  0
    1.3492    0.0124    3.4571 O   0  0  0  0  0  0
    1.0126    2.2549    1.8775 H   0  0  0  0  0  0
   -0.4733    1.4280    2.3001 H   0  0  0  0  0  0
    1.9792    1.8478    4.0980 H   0  0  0  0  0  0
    0.4318    1.3097    4.7424 H   0  0  0  0  0  0
    1.8584   -0.3916    4.1430 H   0  0  0  0  0  0
    0.3888    4.1021    3.9004 O   0  5  0  0  0  0
  1  2  1  0  0  0
  1  3  1  0  0  0
  1  6  1  0  0  0
  1  7  1  0  0  0
  2  4  2  0  0  0
  2 11  1  0  0  0
  3  5  1  0  0  0
  3  8  1  0  0  0
  3  9  1  0  0  0
  5 10  1  0  0  0
M  CHG  1  11  -1
M  END
> <i_ionizer_Ion_state_n>
1

> <i_ionizer_Tot_Q>
-1

> <s_ionizer_Ion_centers>
11

> <s_ionizer_Ion_types>
OM

> <s_ionizer_Ion_ctrs_in>
4

> <r_ionizer_Ionization_penalty>
0.00059219

> <r_ionizer_Ionization_penalty_charging>
0.00059219

> <r_ionizer_Ionization_penalty_neutral>
0

> <i_mmod_Serial_Number-OPLS-2005>
371

> <i_i_glide_lignum>
367

> <r_i_docking_score>
-3.36854

> <r_i_glide_gscore>
-3.36854

> <r_i_glide_lipo>
-0.168663

> <r_i_glide_hbond>
-1.4

> <r_i_glide_metal>
0

> <r_i_glide_eburp>
-2.9

> <r_i_glide_evdw>
-7.17584

> <r_i_glide_ecoul>
-4.16505

> <r_i_glide_erotb>
1.66262

> <r_i_glide_esite>
0.42807

> <r_i_glide_emodel>
-30.9232

> <r_i_glide_energy>
-11.3409

> <r_i_glide_einternal>
1.11558

> <i_i_glide_confnum>
1

> <i_i_glide_posenum>
541

$$$$
C01035
                    3D
 Structure written by MMmdl.
 21 20  0  0  1  0            999 V2000
   -0.1027    3.8132    3.1716 C   0  0  0  0  0  0
    1.1425    4.0938    2.3217 C   0  0  0  0  0  0
   -1.2266    4.1008    2.7027 O   0  0  0  0  0  0
    2.4588    3.9225    3.1041 C   0  0  0  0  0  0
    2.7414    2.4563    3.4527 C   0  0  0  0  0  0
    4.0702    2.3030    4.0597 N   0  0  0  0  0  0
    4.5436    1.1850    4.6359 C   0  0  0  0  0  0
    3.7628    0.1000    4.6997 N   0  0  0  0  0  0
    1.1291    3.4229    1.4622 H   0  0  0  0  0  0
    1.0695    5.1096    1.9318 H   0  0  0  0  0  0
    3.2896    4.3188    2.5179 H   0  0  0  0  0  0
    2.4194    4.5090    4.0237 H   0  0  0  0  0  0
    1.9892    2.0834    4.1487 H   0  0  0  0  0  0
    2.6891    1.8394    2.5550 H   0  0  0  0  0  0
    4.6645    3.1190    4.0318 H   0  0  0  0  0  0
    4.1002   -0.7494    5.1285 H   0  0  0  0  0  0
    2.8280    0.1232    4.3182 H   0  0  0  0  0  0
    6.1259    0.2875    5.5787 H   0  0  0  0  0  0
    0.1000    3.3063    4.2959 O   0  5  0  0  0  0
    5.7812    1.1330    5.1482 N   0  3  0  0  0  0
    6.3774    1.9468    5.1046 H   0  0  0  0  0  0
  1  2  1  0  0  0
  1  3  2  0  0  0
  1 19  1  0  0  0
  2  4  1  0  0  0
  2  9  1  0  0  0
  2 10  1  0  0  0
  4  5  1  0  0  0
  4 11  1  0  0  0
  4 12  1  0  0  0
  5  6  1  0  0  0
  5 13  1  0  0  0
  5 14  1  0  0  0
  6  7  1  0  0  0
  6 15  1  0  0  0
  7  8  1  0  0  0
  7 20  2  0  0  0
  8 16  1  0  0  0
  8 17  1  0  0  0
 18 20  1  0  0  0
 20 21  1  0  0  0
M  CHG  2  19  -1  20   1
M  END
> <i_ionizer_Ion_state_n>
3

> <i_ionizer_Tot_Q>
0

> <s_ionizer_Ion_centers>
19_20

> <s_ionizer_Ion_types>
OM_N4

> <s_ionizer_Ion_ctrs_in>
3_10

> <r_ionizer_Ionization_penalty>
0.000594063

> <r_ionizer_Ionization_penalty_charging>
0.000594063

> <r_ionizer_Ionization_penalty_neutral>
0

> <i_mmod_Serial_Number-OPLS-2005>
377

> <i_i_glide_lignum>
373

> <r_i_docking_score>
-3.36243

> <r_i_glide_gscore>
-3.36243

> <r_i_glide_lipo>
-0.335962

> <r_i_glide_hbond>
-1.9

> <r_i_glide_metal>
0

> <r_i_glide_eburp>
-2.9

> <r_i_glide_evdw>
-7.75507

> <r_i_glide_ecoul>
-12.3825

> <r_i_glide_erotb>
3.1471

> <r_i_glide_esite>
0.485092

> <r_i_glide_emodel>
-54.2359

> <r_i_glide_energy>
-20.1376

> <r_i_glide_einternal>
0.874762

> <i_i_glide_confnum>
42

> <i_i_glide_posenum>
509

$$$$
C09332
                    3D
 Structure written by MMmdl.
 68 70  0  0  1  0            999 V2000
    2.8000    2.6465    1.4720 C   0  0  0  0  0  0
    1.9107    2.6559    2.4896 C   0  0  0  0  0  0
    3.0697    3.7811    0.7328 N   0  0  0  0  0  0
    3.4986    1.5015    1.0837 N   0  0  0  0  0  0
    1.2586    3.8221    2.8489 N   0  0  0  0  0  0
    1.6525    1.4186    3.2321 C   0  0  0  0  0  0
    2.2381    4.9745    0.8488 C   0  0  0  0  0  0
    3.2775    0.4020    1.7341 C   0  0  0  0  0  0
    1.5653    5.1185    2.2462 C   0  0  1  0  0  0
    2.3653    0.3506    2.7981 N   0  0  0  0  0  0
    0.8652    1.3199    4.1722 O   0  0  0  0  0  0
    3.8805   -0.8123    1.4811 N   0  0  0  0  0  0
    0.3170    6.0203    2.1811 C   0  0  0  0  0  0
   -0.1121    6.4911    3.4921 N   0  0  0  0  0  0
   -1.1734    7.2665    3.7932 C   0  0  0  0  0  0
   -1.3266    7.7132    5.1213 C   0  0  0  0  0  0
   -2.1311    7.6453    2.8255 C   0  0  0  0  0  0
   -2.4197    8.5249    5.4812 C   0  0  0  0  0  0
   -3.2248    8.4568    3.1847 C   0  0  0  0  0  0
   -3.3846    8.8957    4.5193 C   0  0  0  0  0  0
   -4.5346    9.7788    4.9132 C   0  0  0  0  0  0
   -5.1124   10.4495    3.9004 N   0  0  0  0  0  0
   -4.9251    9.8120    6.0799 O   0  0  0  0  0  0
   -6.3086   11.2957    3.9292 C   0  0  2  0  0  0
   -6.6466   11.9459    2.5593 C   0  0  0  0  0  0
   -6.2833   12.2420    5.1385 C   0  0  0  0  0  0
   -7.9713   12.7410    2.5207 C   0  0  0  0  0  0
   -5.8312   13.3926    4.9492 O   0  0  0  0  0  0
   -9.1464   12.0486    3.2214 C   0  0  0  0  0  0
  -10.2583   12.7834    3.3744 N   0  0  0  0  0  0
   -9.0513   10.8804    3.5994 O   0  0  0  0  0  0
  -11.4497   12.3942    4.1256 C   0  0  2  0  0  0
  -12.7362   12.7421    3.3376 C   0  0  0  0  0  0
  -11.3734   12.9330    5.5607 C   0  0  0  0  0  0
  -14.0603   12.4627    4.0838 C   0  0  0  0  0  0
  -10.8640   12.1922    6.4305 O   0  0  0  0  0  0
  -14.2417   10.9969    4.4930 C   0  0  0  0  0  0
  -13.5992   10.1238    3.8679 O   0  0  0  0  0  0
    3.7064    3.7215   -0.0485 H   0  0  0  0  0  0
    0.6366    3.8143    3.6448 H   0  0  0  0  0  0
    2.8271    5.8611    0.6130 H   0  0  0  0  0  0
    1.4712    4.8949    0.0774 H   0  0  0  0  0  0
    2.2992    5.5761    2.9105 H   0  0  0  0  0  0
    2.2229   -0.5252    3.2777 H   0  0  0  0  0  0
    4.5627   -0.9437    0.7483 H   0  0  0  0  0  0
    3.6942   -1.6570    2.0014 H   0  0  0  0  0  0
    0.4949    6.8746    1.5269 H   0  0  0  0  0  0
   -0.5128    5.4684    1.7380 H   0  0  0  0  0  0
    0.4738    6.2112    4.2657 H   0  0  0  0  0  0
   -0.6035    7.4377    5.8753 H   0  0  0  0  0  0
   -2.0417    7.3240    1.7988 H   0  0  0  0  0  0
   -2.5149    8.8575    6.5049 H   0  0  0  0  0  0
   -3.9347    8.7410    2.4215 H   0  0  0  0  0  0
   -4.6797   10.3537    2.9940 H   0  0  0  0  0  0
   -7.1086   10.5847    4.1375 H   0  0  0  0  0  0
   -5.8447   12.6227    2.2641 H   0  0  0  0  0  0
   -6.6715   11.1751    1.7876 H   0  0  0  0  0  0
   -7.8234   13.7348    2.9455 H   0  0  0  0  0  0
   -8.2611   12.8965    1.4813 H   0  0  0  0  0  0
  -10.2897   13.7013    2.9540 H   0  0  0  0  0  0
  -11.4303   11.3071    4.2278 H   0  0  0  0  0  0
  -12.7080   13.7992    3.0686 H   0  0  0  0  0  0
  -12.7290   12.1929    2.3948 H   0  0  0  0  0  0
  -14.1042   13.0758    4.9848 H   0  0  0  0  0  0
  -14.9135   12.7478    3.4680 H   0  0  0  0  0  0
   -6.7300   11.8104    6.2242 O   0  5  0  0  0  0
  -11.8259   14.0823    5.7627 O   0  5  0  0  0  0
  -15.0421   10.7705    5.4267 O   0  5  0  0  0  0
  1  2  2  0  0  0
  1  3  1  0  0  0
  1  4  1  0  0  0
  2  5  1  0  0  0
  2  6  1  0  0  0
  3  7  1  0  0  0
  3 39  1  0  0  0
  4  8  2  0  0  0
  5  9  1  0  0  0
  5 40  1  0  0  0
  6 10  1  0  0  0
  6 11  2  0  0  0
  7  9  1  0  0  0
  7 41  1  0  0  0
  7 42  1  0  0  0
  8 12  1  0  0  0
  8 10  1  0  0  0
  9 13  1  0  0  0
  9 43  1  0  0  0
 10 44  1  0  0  0
 12 45  1  0  0  0
 12 46  1  0  0  0
 13 14  1  0  0  0
 13 47  1  0  0  0
 13 48  1  0  0  0
 14 15  1  0  0  0
 14 49  1  0  0  0
 15 16  2  0  0  0
 15 17  1  0  0  0
 16 18  1  0  0  0
 16 50  1  0  0  0
 17 19  2  0  0  0
 17 51  1  0  0  0
 18 20  2  0  0  0
 18 52  1  0  0  0
 19 20  1  0  0  0
 19 53  1  0  0  0
 20 21  1  0  0  0
 21 22  1  0  0  0
 21 23  2  0  0  0
 22 24  1  0  0  0
 22 54  1  0  0  0
 24 25  1  0  0  0
 24 26  1  0  0  0
 24 55  1  0  0  0
 25 27  1  0  0  0
 25 56  1  0  0  0
 25 57  1  0  0  0
 26 28  2  0  0  0
 26 66  1  0  0  0
 27 29  1  0  0  0
 27 58  1  0  0  0
 27 59  1  0  0  0
 29 30  1  0  0  0
 29 31  2  0  0  0
 30 32  1  0  0  0
 30 60  1  0  0  0
 32 33  1  0  0  0
 32 34  1  0  0  0
 32 61  1  0  0  0
 33 35  1  0  0  0
 33 62  1  0  0  0
 33 63  1  0  0  0
 34 36  2  0  0  0
 34 67  1  0  0  0
 35 37  1  0  0  0
 35 64  1  0  0  0
 35 65  1  0  0  0
 37 38  2  0  0  0
 37 68  1  0  0  0
M  CHG  3  66  -1  67  -1  68  -1
M  END
> <i_ionizer_Ion_state_n>
14

> <i_ionizer_Tot_Q>
-3

> <s_ionizer_Ion_centers>
66_67_68

> <s_ionizer_Ion_types>
OM_OM_OM

> <s_ionizer_Ion_ctrs_in>
28_37_40

> <r_ionizer_Ionization_penalty>
0.00364722

> <r_ionizer_Ionization_penalty_charging>
0.00177657

> <r_ionizer_Ionization_penalty_neutral>
0.00187065

> <s_st_Chirality_1>
9_R_5_7_13_43

> <s_st_Chirality_2>
24_R_22_26_25_55

> <s_st_Chirality_3>
32_R_30_34_33_61

> <i_mmod_Serial_Number-OPLS-2005>
913

> <i_i_glide_lignum>
901

> <r_i_docking_score>
-3.35363

> <r_i_glide_gscore>
-3.35363

> <r_i_glide_lipo>
-1.14232

> <r_i_glide_hbond>
-0.95

> <r_i_glide_metal>
0

> <r_i_glide_eburp>
0

> <r_i_glide_evdw>
-31.4017

> <r_i_glide_ecoul>
-2.95284

> <r_i_glide_erotb>
0.844039

> <r_i_glide_esite>
0.702067

> <r_i_glide_emodel>
-78.2009

> <r_i_glide_energy>
-34.3545

> <r_i_glide_einternal>
9.19893

> <i_i_glide_confnum>
28

> <i_i_glide_posenum>
544

$$$$
C00044
                    3D
 Structure written by MMmdl.
 44 46  0  0  1  0            999 V2000
   -2.5714    8.3797    3.8280 N   0  0  0  0  0  0
   -3.4347    9.1718    4.5549 C   0  0  0  0  0  0
   -2.7231    8.0043    2.3886 C   0  0  2  0  0  0
   -1.5696    8.0435    4.7106 C   0  0  0  0  0  0
   -2.9106    9.2559    5.8296 C   0  0  0  0  0  0
   -4.5849    9.7620    4.1038 N   0  0  0  0  0  0
   -2.7833    6.6085    2.3238 O   0  0  0  0  0  0
   -1.4840    8.4593    1.6061 C   0  0  1  0  0  0
   -1.7273    8.5306    5.9102 N   0  0  0  0  0  0
   -3.5996   10.0226    6.8292 C   0  0  0  0  0  0
   -5.2181   10.4692    5.0219 C   0  0  0  0  0  0
   -1.7299    6.1017    1.5077 C   0  0  1  0  0  0
   -0.6569    7.1866    1.5784 C   0  0  1  0  0  0
   -1.8292    8.9017    0.3070 O   0  0  0  0  0  0
   -4.7695   10.6096    6.3323 N   0  0  0  0  0  0
   -3.2870   10.2046    8.0040 O   0  0  0  0  0  0
   -6.3566   11.0944    4.6976 N   0  0  0  0  0  0
   -1.2882    4.7232    2.0111 C   0  0  0  0  0  0
    0.2756    7.1552    0.5154 O   0  0  0  0  0  0
    0.1232    4.6955    2.0872 O   0  0  0  0  0  0
    0.9404    4.1943    3.4928 P   0  0  0  0  0  0
    2.3979    3.5036    2.9501 O   0  0  0  0  0  0
    1.2583    5.3963    4.2978 O   0  0  0  0  0  0
    2.9234    2.6235    1.5908 P   0  0  0  0  0  0
    2.0886    1.1434    1.6490 O   0  0  0  0  0  0
    2.4843    3.3396    0.3697 O   0  0  0  0  0  0
    0.9969    0.0945    2.5920 P   0  0  0  0  0  0
   -0.2883    0.0832    1.7348 O   0  0  0  0  0  0
   -3.6569    8.4658    2.0659 H   0  0  0  0  0  0
   -0.7211    7.4283    4.4434 H   0  0  0  0  0  0
   -0.9662    9.2707    2.1201 H   0  0  0  0  0  0
   -2.1170    6.0225    0.4903 H   0  0  0  0  0  0
   -0.1159    7.1054    2.5179 H   0  0  0  0  0  0
   -1.9245    9.8423    0.3495 H   0  0  0  0  0  0
   -5.3042   11.1653    6.9824 H   0  0  0  0  0  0
   -6.7104   11.0156    3.7550 H   0  0  0  0  0  0
   -6.8590   11.6418    5.3804 H   0  0  0  0  0  0
   -1.7321    4.4970    2.9789 H   0  0  0  0  0  0
   -1.6270    3.9558    1.3151 H   0  0  0  0  0  0
   -0.1396    7.5756   -0.2316 H   0  0  0  0  0  0
    0.1359    3.1152    4.1106 O   0  5  0  0  0  0
    4.3682    2.3466    1.7703 O   0  5  0  0  0  0
    1.7830   -1.2350    2.6536 O   0  5  0  0  0  0
    0.8997    0.8692    3.9266 O   0  5  0  0  0  0
  1  2  1  0  0  0
  1  3  1  0  0  0
  1  4  1  0  0  0
  2  5  2  0  0  0
  2  6  1  0  0  0
  3  7  1  0  0  0
  3  8  1  0  0  0
  3 29  1  0  0  0
  4  9  2  0  0  0
  4 30  1  0  0  0
  5 10  1  0  0  0
  5  9  1  0  0  0
  6 11  2  0  0  0
  7 12  1  0  0  0
  8 13  1  0  0  0
  8 14  1  0  0  0
  8 31  1  0  0  0
 10 15  1  0  0  0
 10 16  2  0  0  0
 11 17  1  0  0  0
 11 15  1  0  0  0
 12 18  1  0  0  0
 12 13  1  0  0  0
 12 32  1  0  0  0
 13 19  1  0  0  0
 13 33  1  0  0  0
 14 34  1  0  0  0
 15 35  1  0  0  0
 17 36  1  0  0  0
 17 37  1  0  0  0
 18 20  1  0  0  0
 18 38  1  0  0  0
 18 39  1  0  0  0
 19 40  1  0  0  0
 20 21  1  0  0  0
 21 22  1  0  0  0
 21 23  2  0  0  0
 21 41  1  0  0  0
 22 24  1  0  0  0
 24 25  1  0  0  0
 24 26  2  0  0  0
 24 42  1  0  0  0
 25 27  1  0  0  0
 27 28  2  0  0  0
 27 43  1  0  0  0
 27 44  1  0  0  0
M  CHG  4  41  -1  42  -1  43  -1  44  -1
M  END
> <i_ionizer_Ion_state_n>
30

> <i_ionizer_Tot_Q>
-4

> <s_ionizer_Ion_centers>
41_42_43_44

> <s_ionizer_Ion_types>
OM_OM_OM_OM

> <s_ionizer_Ion_ctrs_in>
23_27_30_31

> <r_ionizer_Ionization_penalty>
4.85714e-05

> <r_ionizer_Ionization_penalty_charging>
2.98356e-05

> <r_ionizer_Ionization_penalty_neutral>
1.87357e-05

> <s_st_Chirality_1>
3_R_7_1_8_29

> <s_st_Chirality_2>
8_R_14_3_13_31

> <s_st_Chirality_3>
12_R_7_13_18_32

> <s_st_Chirality_4>
13_R_19_8_12_33

> <i_mmod_Serial_Number-OPLS-2005>
31

> <i_i_glide_lignum>
30

> <r_i_docking_score>
-3.343

> <r_i_glide_gscore>
-3.343

> <r_i_glide_lipo>
-0.462556

> <r_i_glide_hbond>
-1.56943

> <r_i_glide_metal>
0

> <r_i_glide_eburp>
1.11022e-16

> <r_i_glide_evdw>
-23.6978

> <r_i_glide_ecoul>
-11.9996

> <r_i_glide_erotb>
0.609764

> <r_i_glide_esite>
1.175

> <r_i_glide_emodel>
-89.7597

> <r_i_glide_energy>
-35.6974

> <r_i_glide_einternal>
11.6935

> <i_i_glide_confnum>
243

> <i_i_glide_posenum>
5

$$$$
C00864
                    3D
 Structure written by MMmdl.
 31 30  0  0  1  0            999 V2000
    2.8365    1.3725    3.6380 C   0  0  2  0  0  0
    2.0019    0.0812    3.3276 C   0  0  0  0  0  0
    3.6070    1.9669    2.4432 C   0  0  0  0  0  0
    3.7533    1.1384    4.6928 O   0  0  0  0  0  0
    0.9099    0.4461    2.2834 C   0  0  0  0  0  0
    2.9268   -1.0025    2.7197 C   0  0  0  0  0  0
    1.3311   -0.4934    4.5998 C   0  0  0  0  0  0
    3.3630    3.2548    2.1591 N   0  0  0  0  0  0
    4.4200    1.2872    1.8159 O   0  0  0  0  0  0
    0.1172   -0.6625    1.9020 O   0  0  0  0  0  0
    2.3545    4.0696    2.8229 C   0  0  0  0  0  0
    0.9918    3.9111    2.1227 C   0  0  0  0  0  0
   -0.1820    3.8113    3.1049 C   0  0  0  0  0  0
   -1.3306    4.0994    2.7010 O   0  0  0  0  0  0
    2.1520    2.1403    4.0031 H   0  0  0  0  0  0
    3.9944    0.2247    4.6818 H   0  0  0  0  0  0
    0.2383    1.2109    2.6745 H   0  0  0  0  0  0
    1.3659    0.8610    1.3837 H   0  0  0  0  0  0
    2.3723   -1.9003    2.4456 H   0  0  0  0  0  0
    3.4250   -0.6396    1.8201 H   0  0  0  0  0  0
    3.7003   -1.3208    3.4189 H   0  0  0  0  0  0
    0.7206   -1.3668    4.3697 H   0  0  0  0  0  0
    2.0629   -0.8155    5.3398 H   0  0  0  0  0  0
    0.6791    0.2390    5.0763 H   0  0  0  0  0  0
    3.9145    3.7024    1.4418 H   0  0  0  0  0  0
   -0.0670   -1.1798    2.6711 H   0  0  0  0  0  0
    2.2832    3.7668    3.8693 H   0  0  0  0  0  0
    2.6711    5.1142    2.8068 H   0  0  0  0  0  0
    0.8119    4.7582    1.4597 H   0  0  0  0  0  0
    0.9935    3.0155    1.5004 H   0  0  0  0  0  0
    0.1002    3.4410    4.2651 O   0  5  0  0  0  0
  1  2  1  0  0  0
  1  3  1  0  0  0
  1  4  1  0  0  0
  1 15  1  0  0  0
  2  5  1  0  0  0
  2  6  1  0  0  0
  2  7  1  0  0  0
  3  8  1  0  0  0
  3  9  2  0  0  0
  4 16  1  0  0  0
  5 10  1  0  0  0
  5 17  1  0  0  0
  5 18  1  0  0  0
  6 19  1  0  0  0
  6 20  1  0  0  0
  6 21  1  0  0  0
  7 22  1  0  0  0
  7 23  1  0  0  0
  7 24  1  0  0  0
  8 11  1  0  0  0
  8 25  1  0  0  0
 10 26  1  0  0  0
 11 12  1  0  0  0
 11 27  1  0  0  0
 11 28  1  0  0  0
 12 13  1  0  0  0
 12 29  1  0  0  0
 12 30  1  0  0  0
 13 14  2  0  0  0
 13 31  1  0  0  0
M  CHG  1  31  -1
M  END
> <i_ionizer_Ion_state_n>
1

> <i_ionizer_Tot_Q>
-1

> <s_ionizer_Ion_centers>
31

> <s_ionizer_Ion_types>
OM

> <s_ionizer_Ion_ctrs_in>
14

> <r_ionizer_Ionization_penalty>
0.00059219

> <r_ionizer_Ionization_penalty_charging>
0.00059219

> <r_ionizer_Ionization_penalty_neutral>
0

> <s_st_Chirality_1>
1_R_4_3_2_15

> <i_mmod_Serial_Number-OPLS-2005>
348

> <i_i_glide_lignum>
345

> <r_i_docking_score>
-3.34111

> <r_i_glide_gscore>
-3.34111

> <r_i_glide_lipo>
-0.636921

> <r_i_glide_hbond>
-1.89466

> <r_i_glide_metal>
0

> <r_i_glide_eburp>
-2.53461

> <r_i_glide_evdw>
-20.2769

> <r_i_glide_ecoul>
-10.5653

> <r_i_glide_erotb>
4.83814

> <r_i_glide_esite>
-0.434375

> <r_i_glide_emodel>
-56.4973

> <r_i_glide_energy>
-30.8422

> <r_i_glide_einternal>
11.2878

> <i_i_glide_confnum>
131

> <i_i_glide_posenum>
966

$$$$
C00696
                    3D
 Structure written by MMmdl.
 56 56  0  0  1  0            999 V2000
    1.8991    0.3811    1.8564 C   0  0  2  0  0  0
    1.8037    1.4818    2.9296 C   0  0  2  0  0  0
    1.9760   -0.9446    2.6509 C   0  0  2  0  0  0
    3.0195    0.6100    0.8213 C   0  0  0  0  0  0
    1.1135    0.7779    4.0917 C   0  0  0  0  0  0
    1.0273    2.7108    2.4911 C   0  0  0  0  0  0
    1.0635   -0.7265    3.8694 C   0  0  0  0  0  0
    3.2975   -1.1818    3.1053 O   0  0  0  0  0  0
    3.3051   -0.6329   -0.0049 C   0  0  0  0  0  0
    0.6541    1.3448    5.0822 O   0  0  0  0  0  0
    1.5195    3.9628    2.5123 C   0  0  0  0  0  0
    4.4999   -1.2084   -0.2369 C   0  0  0  0  0  0
    0.7907    5.2308    2.0914 C   0  0  2  0  0  0
    5.8569   -0.7674    0.2823 C   0  0  0  0  0  0
   -0.7342    5.0210    2.0829 C   0  0  0  0  0  0
    1.2122    5.6772    0.8161 O   0  0  0  0  0  0
    6.6912   -0.0850   -0.8103 C   0  0  0  0  0  0
   -1.5191    6.2306    1.5469 C   0  0  0  0  0  0
    7.9901    0.5330   -0.2555 C   0  0  0  0  0  0
   -1.0451    7.5569    2.1590 C   0  0  0  0  0  0
    8.7505   -0.4030    0.6931 C   0  0  0  0  0  0
   -1.5354    8.7794    1.3697 C   0  0  0  0  0  0
    8.0986   -1.2023    1.4017 O   0  0  0  0  0  0
   -1.1694    8.7058   -0.1168 C   0  0  0  0  0  0
    0.9525    0.3679    1.3119 H   0  0  0  0  0  0
    2.7995    1.7699    3.2698 H   0  0  0  0  0  0
    1.6501   -1.7925    2.0473 H   0  0  0  0  0  0
    2.7104    1.3914    0.1265 H   0  0  0  0  0  0
    3.9160    0.9926    1.3045 H   0  0  0  0  0  0
    0.0161    2.5337    2.1549 H   0  0  0  0  0  0
    0.0353   -1.0077    3.6401 H   0  0  0  0  0  0
    1.3830   -1.2822    4.7519 H   0  0  0  0  0  0
    3.2748   -1.8580    3.7652 H   0  0  0  0  0  0
    2.4331   -1.0907   -0.4488 H   0  0  0  0  0  0
    2.5325    4.1110    2.8576 H   0  0  0  0  0  0
    4.5202   -2.0899   -0.8610 H   0  0  0  0  0  0
    1.0475    6.0022    2.8182 H   0  0  0  0  0  0
    5.7628   -0.1062    1.1410 H   0  0  0  0  0  0
    6.3782   -1.6545    0.6428 H   0  0  0  0  0  0
   -0.9800    4.1316    1.5004 H   0  0  0  0  0  0
   -1.0691    4.8171    3.1009 H   0  0  0  0  0  0
    1.1142    4.9661    0.2016 H   0  0  0  0  0  0
    6.9324   -0.8131   -1.5865 H   0  0  0  0  0  0
    6.0892    0.6904   -1.2870 H   0  0  0  0  0  0
   -1.4178    6.2765    0.4619 H   0  0  0  0  0  0
   -2.5820    6.1016    1.7531 H   0  0  0  0  0  0
    8.6546    0.8018   -1.0772 H   0  0  0  0  0  0
    7.7634    1.4544    0.2818 H   0  0  0  0  0  0
   -1.3960    7.6264    3.1894 H   0  0  0  0  0  0
    0.0447    7.5677    2.2029 H   0  0  0  0  0  0
   -2.6178    8.8691    1.4684 H   0  0  0  0  0  0
   -1.1102    9.6873    1.7991 H   0  0  0  0  0  0
   -1.5300    9.5858   -0.6496 H   0  0  0  0  0  0
   -0.0890    8.6533   -0.2544 H   0  0  0  0  0  0
   -1.6110    7.8274   -0.5883 H   0  0  0  0  0  0
    9.9962   -0.2975    0.6904 O   0  5  0  0  0  0
  1  2  1  0  0  0
  1  3  1  0  0  0
  1  4  1  0  0  0
  1 25  1  0  0  0
  2  5  1  0  0  0
  2  6  1  0  0  0
  2 26  1  0  0  0
  3  7  1  0  0  0
  3  8  1  0  0  0
  3 27  1  0  0  0
  4  9  1  0  0  0
  4 28  1  0  0  0
  4 29  1  0  0  0
  5 10  2  0  0  0
  5  7  1  0  0  0
  6 11  2  0  0  0
  6 30  1  0  0  0
  7 31  1  0  0  0
  7 32  1  0  0  0
  8 33  1  0  0  0
  9 12  2  0  0  0
  9 34  1  0  0  0
 11 13  1  0  0  0
 11 35  1  0  0  0
 12 14  1  0  0  0
 12 36  1  0  0  0
 13 15  1  0  0  0
 13 16  1  0  0  0
 13 37  1  0  0  0
 14 17  1  0  0  0
 14 38  1  0  0  0
 14 39  1  0  0  0
 15 18  1  0  0  0
 15 40  1  0  0  0
 15 41  1  0  0  0
 16 42  1  0  0  0
 17 19  1  0  0  0
 17 43  1  0  0  0
 17 44  1  0  0  0
 18 20  1  0  0  0
 18 45  1  0  0  0
 18 46  1  0  0  0
 19 21  1  0  0  0
 19 47  1  0  0  0
 19 48  1  0  0  0
 20 22  1  0  0  0
 20 49  1  0  0  0
 20 50  1  0  0  0
 21 23  2  0  0  0
 21 56  1  0  0  0
 22 24  1  0  0  0
 22 51  1  0  0  0
 22 52  1  0  0  0
 24 53  1  0  0  0
 24 54  1  0  0  0
 24 55  1  0  0  0
M  CHG  1  56  -1
M  END
> <i_ionizer_Ion_state_n>
1

> <i_ionizer_Tot_Q>
-1

> <s_ionizer_Ion_centers>
56

> <s_ionizer_Ion_types>
OM

> <s_ionizer_Ion_ctrs_in>
23

> <r_ionizer_Ionization_penalty>
0.00059219

> <r_ionizer_Ionization_penalty_charging>
0.00059219

> <r_ionizer_Ionization_penalty_neutral>
0

> <s_st_Chirality_1>
1_R_3_2_4_25

> <s_st_Chirality_2>
2_R_5_1_6_26

> <s_st_Chirality_3>
3_S_8_1_7_27

> <s_st_Chirality_4>
13_S_16_11_15_37

> <s_st_EZ_1>
2_6_11_13_E

> <s_st_EZ_2>
4_9_12_14_Z

> <i_mmod_Serial_Number-OPLS-2005>
322

> <i_i_glide_lignum>
319

> <r_i_docking_score>
-3.30894

> <r_i_glide_gscore>
-3.30894

> <r_i_glide_lipo>
-1.60903

> <r_i_glide_hbond>
0

> <r_i_glide_metal>
0

> <r_i_glide_eburp>
-1.12525

> <r_i_glide_evdw>
-22.7328

> <r_i_glide_ecoul>
1.54539

> <r_i_glide_erotb>
1.7646

> <r_i_glide_esite>
-0.675186

> <r_i_glide_emodel>
-30.6736

> <r_i_glide_energy>
-21.1874

> <r_i_glide_einternal>
8.96377

> <i_i_glide_confnum>
155

> <i_i_glide_posenum>
468

$$$$
C05932
                    3D
 Structure written by MMmdl.
 27 26  0  0  1  0            999 V2000
    2.4946    0.5680    1.4975 C   0  0  1  0  0  0
    3.0287    1.4493    2.5356 N   0  0  0  0  0  0
    3.6439   -0.3405    1.0029 C   0  0  0  0  0  0
    1.3704   -0.2989    2.0917 C   0  0  0  0  0  0
    2.7914    2.7660    2.6428 C   0  0  0  0  0  0
    4.8179    0.4250    0.3605 C   0  0  0  0  0  0
    1.6996   -1.3387    2.7065 O   0  0  0  0  0  0
    1.8220    3.3625    1.6187 C   0  0  0  0  0  0
    3.3097    3.4784    3.5030 O   0  0  0  0  0  0
    5.9303   -0.5152   -0.0951 C   0  0  0  0  0  0
    0.9203    4.4644    2.2189 C   0  0  0  0  0  0
    7.1119   -0.2086    0.0499 O   0  0  0  0  0  0
   -0.2041    3.9064    3.1000 C   0  0  0  0  0  0
    0.0998    3.3001    4.1517 O   0  0  0  0  0  0
    2.1091    1.1581    0.6637 H   0  0  0  0  0  0
    3.5776    1.0093    3.2589 H   0  0  0  0  0  0
    4.0251   -0.9076    1.8541 H   0  0  0  0  0  0
    3.2601   -1.0831    0.3005 H   0  0  0  0  0  0
    4.4820    0.9974   -0.5045 H   0  0  0  0  0  0
    5.2333    1.1388    1.0727 H   0  0  0  0  0  0
    2.4115    3.7655    0.7941 H   0  0  0  0  0  0
    1.2047    2.5636    1.2038 H   0  0  0  0  0  0
    5.6068   -1.4509   -0.5517 H   0  0  0  0  0  0
    1.5177    5.1510    2.8202 H   0  0  0  0  0  0
    0.4635    5.0550    1.4238 H   0  0  0  0  0  0
    0.1965    0.0882    1.9033 O   0  5  0  0  0  0
   -1.3709    4.1003    2.6951 O   0  5  0  0  0  0
  1  2  1  0  0  0
  1  3  1  0  0  0
  1  4  1  0  0  0
  1 15  1  0  0  0
  2  5  1  0  0  0
  2 16  1  0  0  0
  3  6  1  0  0  0
  3 17  1  0  0  0
  3 18  1  0  0  0
  4  7  2  0  0  0
  4 26  1  0  0  0
  5  8  1  0  0  0
  5  9  2  0  0  0
  6 10  1  0  0  0
  6 19  1  0  0  0
  6 20  1  0  0  0
  8 11  1  0  0  0
  8 21  1  0  0  0
  8 22  1  0  0  0
 10 12  2  0  0  0
 10 23  1  0  0  0
 11 13  1  0  0  0
 11 24  1  0  0  0
 11 25  1  0  0  0
 13 14  2  0  0  0
 13 27  1  0  0  0
M  CHG  2  26  -1  27  -1
M  END
> <i_ionizer_Ion_state_n>
3

> <i_ionizer_Tot_Q>
-2

> <s_ionizer_Ion_centers>
26_27

> <s_ionizer_Ion_types>
OM_OM

> <s_ionizer_Ion_ctrs_in>
7_15

> <r_ionizer_Ionization_penalty>
0.00118438

> <r_ionizer_Ionization_penalty_charging>
0.00118438

> <r_ionizer_Ionization_penalty_neutral>
0

> <s_st_Chirality_1>
1_S_2_4_3_15

> <i_mmod_Serial_Number-OPLS-2005>
828

> <i_i_glide_lignum>
816

> <r_i_docking_score>
-3.29642

> <r_i_glide_gscore>
-3.29642

> <r_i_glide_lipo>
-0.356225

> <r_i_glide_hbond>
-1.71083

> <r_i_glide_metal>
0

> <r_i_glide_eburp>
-2.45158

> <r_i_glide_evdw>
-21.0697

> <r_i_glide_ecoul>
-10.2284

> <r_i_glide_erotb>
4.45342

> <r_i_glide_esite>
-0.52279

> <r_i_glide_emodel>
-66.9789

> <r_i_glide_energy>
-31.2981

> <r_i_glide_einternal>
9.45666

> <i_i_glide_confnum>
53

> <i_i_glide_posenum>
679

$$$$
C02723
                    3D
 Structure written by MMmdl.
 23 22  0  0  1  0            999 V2000
    4.7717    0.6503    4.8176 C   0  0  0  0  0  0
    6.2594    0.2730    4.8982 C   0  0  0  0  0  0
    4.1583    0.3442    3.4432 C   0  0  0  0  0  0
    6.7827    0.2398    6.3420 C   0  0  0  0  0  0
    1.9683   -0.5777    4.1311 C   0  0  0  0  0  0
    4.2203    0.1118    5.5899 H   0  0  0  0  0  0
    4.6560    1.7123    5.0390 H   0  0  0  0  0  0
    6.4098   -0.7028    4.4339 H   0  0  0  0  0  0
    6.8444    0.9860    4.3153 H   0  0  0  0  0  0
    3.5832    1.2021    3.0918 H   0  0  0  0  0  0
    4.9491    0.1655    2.7130 H   0  0  0  0  0  0
    7.5817    0.9705    6.4730 H   0  0  0  0  0  0
    5.9876    0.5043    7.0401 H   0  0  0  0  0  0
    7.6347   -1.0817    7.6508 H   0  0  0  0  0  0
    6.5612   -1.7778    6.6125 H   0  0  0  0  0  0
    1.3700   -1.4889    4.1416 H   0  0  0  0  0  0
    2.0932   -0.2402    5.1606 H   0  0  0  0  0  0
    1.4175    0.1851    3.5795 H   0  0  0  0  0  0
    3.2767   -0.8389    3.5017 N   0  3  0  0  0  0
    3.1185   -1.1712    2.5608 H   0  0  0  0  0  0
    3.7444   -1.5652    4.0256 H   0  0  0  0  0  0
    7.2991   -1.0932    6.6979 N   0  3  0  0  0  0
    8.0590   -1.3398    6.0797 H   0  0  0  0  0  0
  1  2  1  0  0  0
  1  3  1  0  0  0
  1  6  1  0  0  0
  1  7  1  0  0  0
  2  4  1  0  0  0
  2  8  1  0  0  0
  2  9  1  0  0  0
  3 10  1  0  0  0
  3 11  1  0  0  0
  3 19  1  0  0  0
  4 12  1  0  0  0
  4 13  1  0  0  0
  4 22  1  0  0  0
  5 16  1  0  0  0
  5 17  1  0  0  0
  5 18  1  0  0  0
  5 19  1  0  0  0
 14 22  1  0  0  0
 15 22  1  0  0  0
 19 20  1  0  0  0
 19 21  1  0  0  0
 22 23  1  0  0  0
M  CHG  2  19   1  22   1
M  END
> <i_ionizer_Ion_state_n>
3

> <i_ionizer_Tot_Q>
2

> <s_ionizer_Ion_centers>
19_22

> <s_ionizer_Ion_types>
N5_N5

> <s_ionizer_Ion_ctrs_in>
5_6

> <r_ionizer_Ionization_penalty>
0.000246576

> <r_ionizer_Ionization_penalty_charging>
0.000246576

> <r_ionizer_Ionization_penalty_neutral>
0

> <i_mmod_Serial_Number-OPLS-2005>
506

> <i_i_glide_lignum>
501

> <r_i_docking_score>
-3.29234

> <r_i_glide_gscore>
-3.29234

> <r_i_glide_lipo>
-0.542244

> <r_i_glide_hbond>
-1.24308

> <r_i_glide_metal>
0

> <r_i_glide_eburp>
-2.5

> <r_i_glide_evdw>
-9.98162

> <r_i_glide_ecoul>
-7.64993

> <r_i_glide_erotb>
2.632

> <r_i_glide_esite>
-0.075489

> <r_i_glide_emodel>
-33.5364

> <r_i_glide_energy>
-17.6315

> <r_i_glide_einternal>
10.0088

> <i_i_glide_confnum>
1

> <i_i_glide_posenum>
340

$$$$
C00361
                    3D
 Structure written by MMmdl.
 39 41  0  0  1  0            999 V2000
    0.0611    6.1559    1.7217 C   0  0  0  0  0  0
    1.1052    5.3766    2.1735 N   0  0  0  0  0  0
   -1.0948    5.6037    2.2360 C   0  0  0  0  0  0
    0.1522    7.2626    0.9204 N   0  0  0  0  0  0
    2.5523    5.6009    1.8638 C   0  0  2  0  0  0
    0.5102    4.4032    2.9446 C   0  0  0  0  0  0
   -0.7899    4.4890    3.0080 N   0  0  0  0  0  0
   -2.3629    6.2047    1.9321 C   0  0  0  0  0  0
   -1.0134    7.8175    0.6421 C   0  0  0  0  0  0
    2.9568    4.6385    0.9337 O   0  0  0  0  0  0
    3.3896    5.3877    3.1245 C   0  0  0  0  0  0
   -2.2307    7.3319    1.1120 N   0  0  0  0  0  0
   -3.4833    5.8526    2.2949 O   0  0  0  0  0  0
   -1.0518    8.9082   -0.1333 N   0  0  0  0  0  0
    3.8800    3.7263    1.5305 C   0  0  1  0  0  0
    3.6955    3.9075    3.0392 C   0  0  1  0  0  0
    3.6415    2.3006    1.0209 C   0  0  0  0  0  0
    4.8658    3.5842    3.7607 O   0  0  0  0  0  0
    4.8453    1.5659    1.1034 O   0  0  0  0  0  0
    4.8273   -0.1315    1.1867 P   0  0  0  0  0  0
    3.7934   -0.4823    2.4934 O   0  0  0  0  0  0
    4.2132   -0.6407   -0.0610 O   0  0  0  0  0  0
    2.2485   -0.1046    3.3117 P   0  0  0  0  0  0
    2.7225    0.4491    4.6742 O   0  0  0  0  0  0
    2.6032    6.6099    1.4536 H   0  0  0  0  0  0
    1.0590    3.6277    3.4583 H   0  0  0  0  0  0
    4.2997    5.9828    3.0359 H   0  0  0  0  0  0
    2.8578    5.6841    4.0296 H   0  0  0  0  0  0
   -3.0844    7.8059    0.8594 H   0  0  0  0  0  0
   -0.1879    9.2894   -0.4912 H   0  0  0  0  0  0
   -1.9299    9.3512   -0.3596 H   0  0  0  0  0  0
    4.8809    4.0544    1.2446 H   0  0  0  0  0  0
    2.8523    3.3252    3.4080 H   0  0  0  0  0  0
    2.8639    1.8020    1.5965 H   0  0  0  0  0  0
    3.3065    2.3206   -0.0163 H   0  0  0  0  0  0
    5.5380    4.2006    3.5050 H   0  0  0  0  0  0
    6.1930   -0.5726    1.5518 O   0  5  0  0  0  0
    1.6066    0.9273    2.3576 O   0  5  0  0  0  0
    1.5658   -1.4906    3.3590 O   0  5  0  0  0  0
  1  2  1  0  0  0
  1  3  2  0  0  0
  1  4  1  0  0  0
  2  5  1  0  0  0
  2  6  1  0  0  0
  3  7  1  0  0  0
  3  8  1  0  0  0
  4  9  2  0  0  0
  5 10  1  0  0  0
  5 11  1  0  0  0
  5 25  1  0  0  0
  6  7  2  0  0  0
  6 26  1  0  0  0
  8 12  1  0  0  0
  8 13  2  0  0  0
  9 14  1  0  0  0
  9 12  1  0  0  0
 10 15  1  0  0  0
 11 16  1  0  0  0
 11 27  1  0  0  0
 11 28  1  0  0  0
 12 29  1  0  0  0
 14 30  1  0  0  0
 14 31  1  0  0  0
 15 17  1  0  0  0
 15 16  1  0  0  0
 15 32  1  0  0  0
 16 18  1  0  0  0
 16 33  1  0  0  0
 17 19  1  0  0  0
 17 34  1  0  0  0
 17 35  1  0  0  0
 18 36  1  0  0  0
 19 20  1  0  0  0
 20 21  1  0  0  0
 20 22  2  0  0  0
 20 37  1  0  0  0
 21 23  1  0  0  0
 23 24  2  0  0  0
 23 38  1  0  0  0
 23 39  1  0  0  0
M  CHG  3  37  -1  38  -1  39  -1
M  END
> <i_ionizer_Ion_state_n>
14

> <i_ionizer_Tot_Q>
-3

> <s_ionizer_Ion_centers>
37_38_39

> <s_ionizer_Ion_types>
OM_OM_OM

> <s_ionizer_Ion_ctrs_in>
22_25_26

> <r_ionizer_Ionization_penalty>
4.11125e-05

> <r_ionizer_Ionization_penalty_charging>
2.23767e-05

> <r_ionizer_Ionization_penalty_neutral>
1.87357e-05

> <s_st_Chirality_1>
5_R_10_2_11_25

> <s_st_Chirality_2>
15_R_10_16_17_32

> <s_st_Chirality_3>
16_S_18_15_11_33

> <i_mmod_Serial_Number-OPLS-2005>
208

> <i_i_glide_lignum>
206

> <r_i_docking_score>
-3.28282

> <r_i_glide_gscore>
-3.28282

> <r_i_glide_lipo>
-0.521219

> <r_i_glide_hbond>
-0.884179

> <r_i_glide_metal>
0

> <r_i_glide_eburp>
-0.574377

> <r_i_glide_evdw>
-19.1013

> <r_i_glide_ecoul>
-5.08568

> <r_i_glide_erotb>
0.629641

> <r_i_glide_esite>
0.103987

> <r_i_glide_emodel>
-45.81

> <r_i_glide_energy>
-24.187

> <r_i_glide_einternal>
3.09895

> <i_i_glide_confnum>
5

> <i_i_glide_posenum>
988

$$$$
C00067
                    3D
 Structure written by MMmdl.
  4  3  0  0  1  0            999 V2000
    2.4998   -0.6981    4.6061 C   0  0  0  0  0  0
    1.3570   -0.3644    4.3012 O   0  0  0  0  0  0
    2.8489   -0.6988    5.6387 H   0  0  0  0  0  0
    3.2312   -1.0130    3.8618 H   0  0  0  0  0  0
  1  2  2  0  0  0
  1  3  1  0  0  0
  1  4  1  0  0  0
M  END
> <i_ionizer_Ion_state_n>
0

> <i_ionizer_Tot_Q>
0

> <s_ionizer_Ion_centers>


> <s_ionizer_Ion_types>


> <s_ionizer_Ion_ctrs_in>


> <r_ionizer_Ionization_penalty>
0

> <r_ionizer_Ionization_penalty_charging>
0

> <r_ionizer_Ionization_penalty_neutral>
0

> <i_mmod_Serial_Number-OPLS-2005>
47

> <i_i_glide_lignum>
46

> <r_i_docking_score>
-3.27963

> <r_i_glide_gscore>
-3.27963

> <r_i_glide_lipo>
0

> <r_i_glide_hbond>
0

> <r_i_glide_metal>
0

> <r_i_glide_eburp>
-2.5

> <r_i_glide_evdw>
-5.58787

> <r_i_glide_ecoul>
-1.77646

> <r_i_glide_erotb>
0

> <r_i_glide_esite>
-0.15495

> <r_i_glide_emodel>
-8.0566

> <r_i_glide_energy>
-7.36433

> <r_i_glide_einternal>
0

> <i_i_glide_confnum>
1

> <i_i_glide_posenum>
633

$$$$
C00041
                    3D
 Structure written by MMmdl.
 13 12  0  0  1  0            999 V2000
    2.5964    0.4391    3.7893 C   0  0  2  0  0  0
    1.1753    0.9717    3.5287 C   0  0  0  0  0  0
    3.3556    0.0353    2.5082 C   0  0  0  0  0  0
    0.5019    0.4808    2.5952 O   0  0  0  0  0  0
    3.1592    1.2274    4.2910 H   0  0  0  0  0  0
    4.3658   -0.3005    2.7439 H   0  0  0  0  0  0
    2.8548   -0.7766    1.9787 H   0  0  0  0  0  0
    3.4487    0.8767    1.8203 H   0  0  0  0  0  0
    2.0103   -0.3978    5.5476 H   0  0  0  0  0  0
    1.9793   -1.4434    4.2752 H   0  0  0  0  0  0
    2.5002   -0.7000    4.7173 N   0  3  0  0  0  0
    3.4245   -1.0243    4.9612 H   0  0  0  0  0  0
    0.7736    1.8754    4.2952 O   0  5  0  0  0  0
  1  2  1  0  0  0
  1  3  1  0  0  0
  1  5  1  0  0  0
  1 11  1  0  0  0
  2  4  2  0  0  0
  2 13  1  0  0  0
  3  6  1  0  0  0
  3  7  1  0  0  0
  3  8  1  0  0  0
  9 11  1  0  0  0
 10 11  1  0  0  0
 11 12  1  0  0  0
M  CHG  2  11   1  13  -1
M  END
> <i_ionizer_Ion_state_n>
3

> <i_ionizer_Tot_Q>
0

> <s_ionizer_Ion_centers>
11_13

> <s_ionizer_Ion_types>
N5_OM

> <s_ionizer_Ion_ctrs_in>
4_5

> <r_ionizer_Ionization_penalty>
0.000779521

> <r_ionizer_Ionization_penalty_charging>
0.000779521

> <r_ionizer_Ionization_penalty_neutral>
0

> <s_st_Chirality_1>
1_S_11_2_3_5

> <i_mmod_Serial_Number-OPLS-2005>
28

> <i_i_glide_lignum>
28

> <r_i_docking_score>
-3.27671

> <r_i_glide_gscore>
-3.27671

> <r_i_glide_lipo>
-0.172324

> <r_i_glide_hbond>
-0.800859

> <r_i_glide_metal>
0

> <r_i_glide_eburp>
-2.5

> <r_i_glide_evdw>
-6.71545

> <r_i_glide_ecoul>
-4.60521

> <r_i_glide_erotb>
1.66198

> <r_i_glide_esite>
-0.467753

> <r_i_glide_emodel>
-27.7784

> <r_i_glide_energy>
-11.3207

> <r_i_glide_einternal>
0.27094

> <i_i_glide_confnum>
3

> <i_i_glide_posenum>
490

$$$$
C00122
                    3D
 Structure written by MMmdl.
 10  9  0  0  1  0            999 V2000
    0.3777    3.4695    3.2995 C   0  0  0  0  0  0
    0.2645    2.0122    2.7932 C   0  0  0  0  0  0
   -0.7032    4.0684    3.4895 O   0  0  0  0  0  0
    1.2467    1.0990    2.8753 C   0  0  0  0  0  0
    1.1335   -0.3582    2.3690 C   0  0  0  0  0  0
    2.1078   -1.1013    2.6175 O   0  0  0  0  0  0
   -0.6750    1.7245    2.3453 H   0  0  0  0  0  0
    2.1862    1.3868    3.3232 H   0  0  0  0  0  0
    1.5376    3.8907    3.5001 O   0  5  0  0  0  0
    0.0941   -0.6375    1.7328 O   0  5  0  0  0  0
  1  2  1  0  0  0
  1  3  2  0  0  0
  1  9  1  0  0  0
  2  4  2  0  0  0
  2  7  1  0  0  0
  4  5  1  0  0  0
  4  8  1  0  0  0
  5  6  2  0  0  0
  5 10  1  0  0  0
M  CHG  2   9  -1  10  -1
M  END
> <i_ionizer_Ion_state_n>
3

> <i_ionizer_Tot_Q>
-2

> <s_ionizer_Ion_centers>
9_10

> <s_ionizer_Ion_types>
OM_OM

> <s_ionizer_Ion_ctrs_in>
3_7

> <r_ionizer_Ionization_penalty>
0.00118438

> <r_ionizer_Ionization_penalty_charging>
0.00118438

> <r_ionizer_Ionization_penalty_neutral>
0

> <s_st_EZ_1>
1_2_4_5_E

> <i_mmod_Serial_Number-OPLS-2005>
88

> <i_i_glide_lignum>
87

> <r_i_docking_score>
-3.27523

> <r_i_glide_gscore>
-3.27523

> <r_i_glide_lipo>
-0.149702

> <r_i_glide_hbond>
-1.42228

> <r_i_glide_metal>
0

> <r_i_glide_eburp>
-2.5

> <r_i_glide_evdw>
-8.16739

> <r_i_glide_ecoul>
-5.41682

> <r_i_glide_erotb>
2.29367

> <r_i_glide_esite>
-0.301844

> <r_i_glide_emodel>
-42.0359

> <r_i_glide_energy>
-13.5842

> <r_i_glide_einternal>
1.21703

> <i_i_glide_confnum>
2

> <i_i_glide_posenum>
981

$$$$
C03406
                    3D
 Structure written by MMmdl.
 37 36  0  0  1  0            999 V2000
    2.1830    2.0798    3.2151 C   0  0  2  0  0  0
    2.0564    3.0018    2.0689 N   0  0  0  0  0  0
    2.6798    0.6726    2.7833 C   0  0  0  0  0  0
    0.9056    1.9806    4.0620 C   0  0  0  0  0  0
    2.3677    4.3093    2.0318 C   0  0  0  0  0  0
    1.5326   -0.2772    2.4237 C   0  0  0  0  0  0
    0.6917    0.9239    4.6959 O   0  0  0  0  0  0
    1.9584    5.0263    0.9709 N   0  0  0  0  0  0
    1.6967   -1.4914    2.6720 O   0  0  0  0  0  0
    2.0172    6.4886    0.8472 C   0  0  0  0  0  0
    0.7473    7.1450    1.4047 C   0  0  0  0  0  0
   -0.3777    7.2349    0.3564 C   0  0  0  0  0  0
   -1.7579    7.6178    0.9404 C   0  0  1  0  0  0
   -2.2963    6.5481    1.9016 C   0  0  0  0  0  0
   -1.5118    5.6415    2.2613 O   0  0  0  0  0  0
    2.9566    2.5059    3.8561 H   0  0  0  0  0  0
    1.7389    2.5621    1.2152 H   0  0  0  0  0  0
    3.3411    0.7622    1.9201 H   0  0  0  0  0  0
    3.2694    0.2046    3.5730 H   0  0  0  0  0  0
    1.5729    4.5261    0.1825 H   0  0  0  0  0  0
    3.3157    5.8654    2.9774 H   0  0  0  0  0  0
    2.8955    6.8527    1.3813 H   0  0  0  0  0  0
    2.1445    6.7477   -0.2044 H   0  0  0  0  0  0
    0.3938    6.5783    2.2672 H   0  0  0  0  0  0
    0.9956    8.1413    1.7729 H   0  0  0  0  0  0
   -0.0895    7.9423   -0.4231 H   0  0  0  0  0  0
   -0.4653    6.2676   -0.1402 H   0  0  0  0  0  0
   -2.4632    7.7633    0.1202 H   0  0  0  0  0  0
   -2.5975    9.1289    2.0209 H   0  0  0  0  0  0
   -1.0523    8.7703    2.4629 H   0  0  0  0  0  0
    0.1407    2.9706    4.0312 O   0  5  0  0  0  0
    3.0713    4.8881    3.0182 N   0  3  0  0  0  0
    3.2567    4.3526    3.8615 H   0  0  0  0  0  0
    0.5177    0.2283    1.8941 O   0  5  0  0  0  0
   -1.6780    8.8893    1.6788 N   0  3  0  0  0  0
   -1.3362    9.6198    1.0718 H   0  0  0  0  0  0
   -3.4833    6.6661    2.2747 O   0  5  0  0  0  0
  1  2  1  0  0  0
  1  3  1  0  0  0
  1  4  1  0  0  0
  1 16  1  0  0  0
  2  5  1  0  0  0
  2 17  1  0  0  0
  3  6  1  0  0  0
  3 18  1  0  0  0
  3 19  1  0  0  0
  4  7  2  0  0  0
  4 31  1  0  0  0
  5  8  1  0  0  0
  5 32  2  0  0  0
  6  9  2  0  0  0
  6 34  1  0  0  0
  8 10  1  0  0  0
  8 20  1  0  0  0
 10 11  1  0  0  0
 10 22  1  0  0  0
 10 23  1  0  0  0
 11 12  1  0  0  0
 11 24  1  0  0  0
 11 25  1  0  0  0
 12 13  1  0  0  0
 12 26  1  0  0  0
 12 27  1  0  0  0
 13 14  1  0  0  0
 13 28  1  0  0  0
 13 35  1  0  0  0
 14 15  2  0  0  0
 14 37  1  0  0  0
 21 32  1  0  0  0
 29 35  1  0  0  0
 30 35  1  0  0  0
 32 33  1  0  0  0
 35 36  1  0  0  0
M  CHG  5  31  -1  32   1  34  -1  35   1  37  -1
M  END
> <i_ionizer_Ion_state_n>
31

> <i_ionizer_Tot_Q>
-1

> <s_ionizer_Ion_centers>
31_32_34_35_37

> <s_ionizer_Ion_types>
OM_N4_OM_N5_OM

> <s_ionizer_Ion_ctrs_in>
7_10_11_18_19

> <r_ionizer_Ionization_penalty>
0.00196577

> <r_ionizer_Ionization_penalty_charging>
0.00196577

> <r_ionizer_Ionization_penalty_neutral>
0

> <s_st_Chirality_1>
13_S_35_14_12_28

> <s_st_Chirality_2>
1_R_2_4_3_16

> <i_mmod_Serial_Number-OPLS-2005>
540

> <i_i_glide_lignum>
534

> <r_i_docking_score>
-3.26864

> <r_i_glide_gscore>
-3.26864

> <r_i_glide_lipo>
-0.558845

> <r_i_glide_hbond>
-1.89114

> <r_i_glide_metal>
0

> <r_i_glide_eburp>
-1.99644

> <r_i_glide_evdw>
-16.6919

> <r_i_glide_ecoul>
-14.5341

> <r_i_glide_erotb>
3.97854

> <r_i_glide_esite>
-0.0119888

> <r_i_glide_emodel>
-99.0437

> <r_i_glide_energy>
-31.226

> <r_i_glide_einternal>
12.0569

> <i_i_glide_confnum>
130

> <i_i_glide_posenum>
736

$$$$
C05931
                    3D
 Structure written by MMmdl.
 27 26  0  0  1  0            999 V2000
    1.5858    0.7594    3.6518 C   0  0  1  0  0  0
    2.9907    0.8042    3.2468 N   0  0  0  0  0  0
    0.7634    1.5771    2.6262 C   0  0  0  0  0  0
    1.0974   -0.7001    3.6978 C   0  0  0  0  0  0
    3.4941    0.3092    2.1054 C   0  0  0  0  0  0
    1.1211    3.0794    2.5456 C   0  0  0  0  0  0
    0.4998   -1.0805    4.7302 O   0  0  0  0  0  0
    4.9773    0.5963    1.8511 C   0  0  0  0  0  0
    2.8289   -0.3455    1.3018 O   0  0  0  0  0  0
    0.1091    3.9947    3.2437 C   0  0  0  0  0  0
    5.4832    0.0660    0.4900 C   0  0  0  0  0  0
    0.5441    4.9681    3.8988 O   0  0  0  0  0  0
    6.6180    0.9124   -0.1000 C   0  0  0  0  0  0
    6.3793    2.0971   -0.4252 O   0  0  0  0  0  0
    1.4685    1.2083    4.6401 H   0  0  0  0  0  0
    3.6187    1.2943    3.8662 H   0  0  0  0  0  0
    0.8999    1.1248    1.6425 H   0  0  0  0  0  0
   -0.3004    1.4819    2.8523 H   0  0  0  0  0  0
    2.1013    3.2657    2.9849 H   0  0  0  0  0  0
    1.1845    3.3803    1.4991 H   0  0  0  0  0  0
    5.1346    1.6747    1.9089 H   0  0  0  0  0  0
    5.5498    0.1486    2.6647 H   0  0  0  0  0  0
    5.8458   -0.9574    0.5941 H   0  0  0  0  0  0
    4.6644    0.0410   -0.2304 H   0  0  0  0  0  0
    1.3339   -1.4118    2.6969 O   0  5  0  0  0  0
   -1.0993    3.7080    3.0977 O   0  5  0  0  0  0
    7.7276    0.3473   -0.2133 O   0  5  0  0  0  0
  1  2  1  0  0  0
  1  3  1  0  0  0
  1  4  1  0  0  0
  1 15  1  0  0  0
  2  5  1  0  0  0
  2 16  1  0  0  0
  3  6  1  0  0  0
  3 17  1  0  0  0
  3 18  1  0  0  0
  4  7  2  0  0  0
  4 25  1  0  0  0
  5  8  1  0  0  0
  5  9  2  0  0  0
  6 10  1  0  0  0
  6 19  1  0  0  0
  6 20  1  0  0  0
  8 11  1  0  0  0
  8 21  1  0  0  0
  8 22  1  0  0  0
 10 12  2  0  0  0
 10 26  1  0  0  0
 11 13  1  0  0  0
 11 23  1  0  0  0
 11 24  1  0  0  0
 13 14  2  0  0  0
 13 27  1  0  0  0
M  CHG  3  25  -1  26  -1  27  -1
M  END
> <i_ionizer_Ion_state_n>
7

> <i_ionizer_Tot_Q>
-3

> <s_ionizer_Ion_centers>
25_26_27

> <s_ionizer_Ion_types>
OM_OM_OM

> <s_ionizer_Ion_ctrs_in>
7_13_16

> <r_ionizer_Ionization_penalty>
0.00177657

> <r_ionizer_Ionization_penalty_charging>
0.00177657

> <r_ionizer_Ionization_penalty_neutral>
0

> <s_st_Chirality_1>
1_S_2_4_3_15

> <i_mmod_Serial_Number-OPLS-2005>
827

> <i_i_glide_lignum>
815

> <r_i_docking_score>
-3.21719

> <r_i_glide_gscore>
-3.21719

> <r_i_glide_lipo>
-0.402367

> <r_i_glide_hbond>
-2.08259

> <r_i_glide_metal>
0

> <r_i_glide_eburp>
-1.85542

> <r_i_glide_evdw>
-18.6824

> <r_i_glide_ecoul>
-8.89163

> <r_i_glide_erotb>
3.99794

> <r_i_glide_esite>
-0.490988

> <r_i_glide_emodel>
-68.5769

> <r_i_glide_energy>
-27.574

> <r_i_glide_einternal>
8.62918

> <i_i_glide_confnum>
10

> <i_i_glide_posenum>
390

$$$$
C01054
                    3D
 Structure written by MMmdl.
 81 81  0  0  1  0            999 V2000
    3.3228    0.9702    0.3062 C   0  0  1  0  0  0
    3.6391   -0.3773    0.9203 C   0  0  0  0  0  0
    2.5690   -0.2041   -0.0218 O   0  0  0  0  0  0
    2.5419    2.0832    0.9808 C   0  0  0  0  0  0
    4.8057   -1.2042    0.4165 C   0  0  0  0  0  0
    3.2021   -0.8014    2.3117 C   0  0  0  0  0  0
    3.4216    2.9139    1.9281 C   0  0  0  0  0  0
    2.6482    4.0093    2.6464 C   0  0  0  0  0  0
    1.3610    4.2668    2.3354 C   0  0  0  0  0  0
    3.4389    4.7610    3.7069 C   0  0  0  0  0  0
    0.4630    5.3374    2.9299 C   0  0  0  0  0  0
   -0.0057    6.3424    1.8666 C   0  0  0  0  0  0
   -1.0173    7.3436    2.4034 C   0  0  0  0  0  0
   -1.4421    7.2810    3.6823 C   0  0  0  0  0  0
   -1.4885    8.3799    1.3939 C   0  0  0  0  0  0
   -2.4624    8.1755    4.3644 C   0  0  0  0  0  0
   -1.9429    8.7159    5.7027 C   0  0  0  0  0  0
   -3.0258    9.4497    6.4741 C   0  0  0  0  0  0
   -4.3390    9.5281    6.1752 C   0  0  0  0  0  0
   -5.3022   10.2831    7.0787 C   0  0  0  0  0  0
   -4.9780    8.8907    4.9504 C   0  0  0  0  0  0
   -4.6861   10.6470    8.4383 C   0  0  0  0  0  0
   -3.3734   11.3943    8.2795 C   0  0  0  0  0  0
   -2.1476   10.9980    8.6899 C   0  0  0  0  0  0
   -0.8740   11.8067    8.4504 C   0  0  0  0  0  0
   -1.8873    9.6967    9.4335 C   0  0  0  0  0  0
   -0.1182   11.5186    7.1405 C   0  0  0  0  0  0
   -0.9946   11.7618    5.9238 C   0  0  0  0  0  0
   -0.6970   12.4765    4.8191 C   0  0  0  0  0  0
    0.6101   13.2166    4.5860 C   0  0  0  0  0  0
   -1.6850   12.5950    3.6747 C   0  0  0  0  0  0
    3.9764    1.3058   -0.4969 H   0  0  0  0  0  0
    2.0971    2.7321    0.2293 H   0  0  0  0  0  0
    1.7174    1.6350    1.5360 H   0  0  0  0  0  0
    5.6565   -1.1092    1.0915 H   0  0  0  0  0  0
    4.5254   -2.2559    0.3526 H   0  0  0  0  0  0
    5.1137   -0.8717   -0.5751 H   0  0  0  0  0  0
    3.0547   -1.8811    2.3473 H   0  0  0  0  0  0
    3.9634   -0.5316    3.0439 H   0  0  0  0  0  0
    2.2621   -0.3326    2.5977 H   0  0  0  0  0  0
    3.8851    2.2524    2.6615 H   0  0  0  0  0  0
    4.2413    3.3711    1.3725 H   0  0  0  0  0  0
    0.8845    3.6603    1.5787 H   0  0  0  0  0  0
    2.8048    5.3007    4.4077 H   0  0  0  0  0  0
    4.0337    4.0617    4.2949 H   0  0  0  0  0  0
    4.1182    5.4744    3.2404 H   0  0  0  0  0  0
   -0.3877    4.8948    3.4440 H   0  0  0  0  0  0
    1.0345    5.8571    3.6996 H   0  0  0  0  0  0
    0.8588    6.8745    1.4668 H   0  0  0  0  0  0
   -0.4520    5.8133    1.0236 H   0  0  0  0  0  0
   -1.0296    6.5146    4.3225 H   0  0  0  0  0  0
   -1.9471    9.2502    1.8592 H   0  0  0  0  0  0
   -0.6428    8.7442    0.8101 H   0  0  0  0  0  0
   -2.2101    7.9397    0.7058 H   0  0  0  0  0  0
   -2.7708    8.9963    3.7195 H   0  0  0  0  0  0
   -3.3605    7.5806    4.5340 H   0  0  0  0  0  0
   -1.5072    7.9109    6.2918 H   0  0  0  0  0  0
   -1.1312    9.4215    5.5222 H   0  0  0  0  0  0
   -2.6707    9.9550    7.3607 H   0  0  0  0  0  0
   -5.6361   11.1933    6.5784 H   0  0  0  0  0  0
   -6.1944    9.6728    7.2245 H   0  0  0  0  0  0
   -5.6954    9.5787    4.5024 H   0  0  0  0  0  0
   -5.5101    7.9812    5.2290 H   0  0  0  0  0  0
   -4.2565    8.6404    4.1751 H   0  0  0  0  0  0
   -5.3909   11.2115    9.0450 H   0  0  0  0  0  0
   -4.4800    9.7369    9.0026 H   0  0  0  0  0  0
   -3.4860   12.3424    7.7771 H   0  0  0  0  0  0
   -1.1363   12.8649    8.4861 H   0  0  0  0  0  0
   -0.2031   11.6276    9.2918 H   0  0  0  0  0  0
   -1.3722    8.9900    8.7826 H   0  0  0  0  0  0
   -1.2497    9.8835   10.2980 H   0  0  0  0  0  0
   -2.7906    9.2208    9.8091 H   0  0  0  0  0  0
    0.7970   12.1049    7.0923 H   0  0  0  0  0  0
    0.1895   10.4729    7.1096 H   0  0  0  0  0  0
   -1.9664   11.2929    5.9808 H   0  0  0  0  0  0
    1.1793   12.7294    3.7941 H   0  0  0  0  0  0
    0.4043   14.2400    4.2712 H   0  0  0  0  0  0
    1.2406   13.2779    5.4701 H   0  0  0  0  0  0
   -1.2479   12.2019    2.7566 H   0  0  0  0  0  0
   -2.6037   12.0427    3.8751 H   0  0  0  0  0  0
   -1.9488   13.6398    3.5088 H   0  0  0  0  0  0
  1  2  1  0  0  0
  1  3  1  0  0  0
  1  4  1  0  0  0
  1 32  1  0  0  0
  2  5  1  0  0  0
  2  6  1  0  0  0
  2  3  1  0  0  0
  4  7  1  0  0  0
  4 33  1  0  0  0
  4 34  1  0  0  0
  5 35  1  0  0  0
  5 36  1  0  0  0
  5 37  1  0  0  0
  6 38  1  0  0  0
  6 39  1  0  0  0
  6 40  1  0  0  0
  7  8  1  0  0  0
  7 41  1  0  0  0
  7 42  1  0  0  0
  8  9  2  0  0  0
  8 10  1  0  0  0
  9 11  1  0  0  0
  9 43  1  0  0  0
 10 44  1  0  0  0
 10 45  1  0  0  0
 10 46  1  0  0  0
 11 12  1  0  0  0
 11 47  1  0  0  0
 11 48  1  0  0  0
 12 13  1  0  0  0
 12 49  1  0  0  0
 12 50  1  0  0  0
 13 14  2  0  0  0
 13 15  1  0  0  0
 14 16  1  0  0  0
 14 51  1  0  0  0
 15 52  1  0  0  0
 15 53  1  0  0  0
 15 54  1  0  0  0
 16 17  1  0  0  0
 16 55  1  0  0  0
 16 56  1  0  0  0
 17 18  1  0  0  0
 17 57  1  0  0  0
 17 58  1  0  0  0
 18 19  2  0  0  0
 18 59  1  0  0  0
 19 20  1  0  0  0
 19 21  1  0  0  0
 20 22  1  0  0  0
 20 60  1  0  0  0
 20 61  1  0  0  0
 21 62  1  0  0  0
 21 63  1  0  0  0
 21 64  1  0  0  0
 22 23  1  0  0  0
 22 65  1  0  0  0
 22 66  1  0  0  0
 23 24  2  0  0  0
 23 67  1  0  0  0
 24 25  1  0  0  0
 24 26  1  0  0  0
 25 27  1  0  0  0
 25 68  1  0  0  0
 25 69  1  0  0  0
 26 70  1  0  0  0
 26 71  1  0  0  0
 26 72  1  0  0  0
 27 28  1  0  0  0
 27 73  1  0  0  0
 27 74  1  0  0  0
 28 29  2  0  0  0
 28 75  1  0  0  0
 29 30  1  0  0  0
 29 31  1  0  0  0
 30 76  1  0  0  0
 30 77  1  0  0  0
 30 78  1  0  0  0
 31 79  1  0  0  0
 31 80  1  0  0  0
 31 81  1  0  0  0
M  END
> <i_ionizer_Ion_state_n>
0

> <i_ionizer_Tot_Q>
0

> <s_ionizer_Ion_centers>


> <s_ionizer_Ion_types>


> <s_ionizer_Ion_ctrs_in>


> <r_ionizer_Ionization_penalty>
0

> <r_ionizer_Ionization_penalty_charging>
0

> <r_ionizer_Ionization_penalty_neutral>
0

> <s_st_Chirality_1>
1_S_3_2_4_32

> <s_st_EZ_1>
7_8_9_11_E

> <s_st_EZ_2>
12_13_14_16_E

> <s_st_EZ_3>
17_18_19_20_E

> <s_st_EZ_4>
22_23_24_25_E

> <i_mmod_Serial_Number-OPLS-2005>
382

> <i_i_glide_lignum>
378

> <r_i_docking_score>
-3.20259

> <r_i_glide_gscore>
-3.20259

> <r_i_glide_lipo>
-1.78045

> <r_i_glide_hbond>
0

> <r_i_glide_metal>
0

> <r_i_glide_eburp>
-0.555058

> <r_i_glide_evdw>
-35.9949

> <r_i_glide_ecoul>
-0.258168

> <r_i_glide_erotb>
1.86855

> <r_i_glide_esite>
0.169775

> <r_i_glide_emodel>
-48.3989

> <r_i_glide_energy>
-36.253

> <r_i_glide_einternal>
7.69249

> <i_i_glide_confnum>
229

> <i_i_glide_posenum>
480

$$$$
C00447
                    3D
 Structure written by MMmdl.
 34 33  0  0  1  0            999 V2000
    7.3976   -0.2325   -0.0675 P   0  0  0  0  0  0
    5.7858    0.3662    0.4219 O   0  0  0  0  0  0
    7.0474   -1.2156   -1.2076 O   0  0  0  0  0  0
    5.0636   -0.5310    1.2445 C   0  0  0  0  0  0
    3.6634    0.0452    1.5336 C   0  0  2  0  0  0
    3.6881    1.4293    2.2452 C   0  0  2  0  0  0
    3.0361   -0.8991    2.3788 O   0  0  0  0  0  0
    2.3024    1.9881    2.7064 C   0  0  2  0  0  0
    4.2127    2.3548    1.3125 O   0  0  0  0  0  0
    2.3270    3.4827    3.1606 C   0  0  2  0  0  0
    1.8443    1.2261    3.8109 O   0  0  0  0  0  0
    0.9250    4.0105    3.5029 C   0  0  0  0  0  0
    2.8735    4.3200    2.1551 O   0  0  0  0  0  0
    0.6798    5.5085    3.3104 C   0  0  0  0  0  0
    0.0313    3.2594    3.8973 O   0  0  0  0  0  0
   -0.6995    5.7972    3.4504 O   0  0  0  0  0  0
   -1.6423    5.6223    1.9402 P   0  0  0  0  0  0
   -2.7996    6.6160    2.1796 O   0  0  0  0  0  0
    5.0031   -1.5142    0.7768 H   0  0  0  0  0  0
    5.6293   -0.6544    2.1675 H   0  0  0  0  0  0
    3.1037    0.1323    0.6018 H   0  0  0  0  0  0
    4.3642    1.3824    3.0996 H   0  0  0  0  0  0
    3.5940   -1.0159    3.1361 H   0  0  0  0  0  0
    1.5815    1.8584    1.8977 H   0  0  0  0  0  0
    3.6576    2.3326    0.5441 H   0  0  0  0  0  0
    2.9572    3.5799    4.0452 H   0  0  0  0  0  0
    1.9603    0.2971    3.6180 H   0  0  0  0  0  0
    2.3439    4.2340    1.3768 H   0  0  0  0  0  0
    1.2699    6.0867    4.0216 H   0  0  0  0  0  0
    1.0025    5.7967    2.3105 H   0  0  0  0  0  0
    8.0977    1.0754   -0.4983 O   0  5  0  0  0  0
    7.9116   -0.8709    1.2423 O   0  5  0  0  0  0
   -0.6102    6.0281    0.8630 O   0  5  0  0  0  0
   -2.0144    4.1240    1.9821 O   0  5  0  0  0  0
  1  2  1  0  0  0
  1  3  2  0  0  0
  1 31  1  0  0  0
  1 32  1  0  0  0
  2  4  1  0  0  0
  4  5  1  0  0  0
  4 19  1  0  0  0
  4 20  1  0  0  0
  5  6  1  0  0  0
  5  7  1  0  0  0
  5 21  1  0  0  0
  6  8  1  0  0  0
  6  9  1  0  0  0
  6 22  1  0  0  0
  7 23  1  0  0  0
  8 10  1  0  0  0
  8 11  1  0  0  0
  8 24  1  0  0  0
  9 25  1  0  0  0
 10 12  1  0  0  0
 10 13  1  0  0  0
 10 26  1  0  0  0
 11 27  1  0  0  0
 12 14  1  0  0  0
 12 15  2  0  0  0
 13 28  1  0  0  0
 14 16  1  0  0  0
 14 29  1  0  0  0
 14 30  1  0  0  0
 16 17  1  0  0  0
 17 18  2  0  0  0
 17 33  1  0  0  0
 17 34  1  0  0  0
M  CHG  4  31  -1  32  -1  33  -1  34  -1
M  END
> <i_ionizer_Ion_state_n>
15

> <i_ionizer_Tot_Q>
-4

> <s_ionizer_Ion_centers>
31_32_33_34

> <s_ionizer_Ion_types>
OM_OM_OM_OM

> <s_ionizer_Ion_ctrs_in>
3_4_20_21

> <r_ionizer_Ionization_penalty>
2.98356e-05

> <r_ionizer_Ionization_penalty_charging>
2.98356e-05

> <r_ionizer_Ionization_penalty_neutral>
0

> <s_st_Chirality_1>
5_R_7_6_4_21

> <s_st_Chirality_2>
6_R_9_8_5_22

> <s_st_Chirality_3>
8_R_11_10_6_24

> <s_st_Chirality_4>
10_R_13_12_8_26

> <i_mmod_Serial_Number-OPLS-2005>
241

> <i_i_glide_lignum>
239

> <r_i_docking_score>
-3.19697

> <r_i_glide_gscore>
-3.19697

> <r_i_glide_lipo>
-0.504961

> <r_i_glide_hbond>
-1.1368

> <r_i_glide_metal>
0

> <r_i_glide_eburp>
-1.01429

> <r_i_glide_evdw>
-25.1988

> <r_i_glide_ecoul>
-3.62476

> <r_i_glide_erotb>
1.31262

> <r_i_glide_esite>
0.524848

> <r_i_glide_emodel>
-61.0104

> <r_i_glide_energy>
-28.8236

> <r_i_glide_einternal>
7.05195

> <i_i_glide_confnum>
11

> <i_i_glide_posenum>
466

$$$$
C05935
                    3D
 Structure written by MMmdl.
 23 22  0  0  1  0            999 V2000
    1.8399    4.5712    2.3617 C   0  0  0  0  0  0
    3.0712    4.1841    3.2008 C   0  0  0  0  0  0
    0.5103    4.0811    2.9556 C   0  0  0  0  0  0
    3.2653    2.6647    3.2827 C   0  0  0  0  0  0
   -0.7851    4.6300    2.3174 C   0  0  0  0  0  0
    0.4864    3.2866    3.8980 O   0  0  0  0  0  0
    4.4440    2.3221    4.0898 N   0  0  0  0  0  0
   -0.6437    5.5502    1.4809 O   0  0  0  0  0  0
    4.7039    1.1158    4.6225 C   0  0  0  0  0  0
    3.8455    0.1100    4.4162 N   0  0  0  0  0  0
    1.7929    5.6562    2.2592 H   0  0  0  0  0  0
    1.9396    4.1628    1.3552 H   0  0  0  0  0  0
    3.9655    4.6391    2.7716 H   0  0  0  0  0  0
    2.9704    4.5895    4.2090 H   0  0  0  0  0  0
    2.3855    2.1965    3.7256 H   0  0  0  0  0  0
    3.3880    2.2467    2.2829 H   0  0  0  0  0  0
    5.1048    3.0693    4.2476 H   0  0  0  0  0  0
    4.0233   -0.8034    4.8080 H   0  0  0  0  0  0
    3.0117    0.2572    3.8658 H   0  0  0  0  0  0
    5.9884   -0.0128    5.7510 H   0  0  0  0  0  0
   -1.8525    4.1003    2.6991 O   0  5  0  0  0  0
    5.8043    0.8978    5.3562 N   0  3  0  0  0  0
    6.4583    1.6500    5.5178 H   0  0  0  0  0  0
  1  2  1  0  0  0
  1  3  1  0  0  0
  1 11  1  0  0  0
  1 12  1  0  0  0
  2  4  1  0  0  0
  2 13  1  0  0  0
  2 14  1  0  0  0
  3  5  1  0  0  0
  3  6  2  0  0  0
  4  7  1  0  0  0
  4 15  1  0  0  0
  4 16  1  0  0  0
  5  8  2  0  0  0
  5 21  1  0  0  0
  7  9  1  0  0  0
  7 17  1  0  0  0
  9 10  1  0  0  0
  9 22  2  0  0  0
 10 18  1  0  0  0
 10 19  1  0  0  0
 20 22  1  0  0  0
 22 23  1  0  0  0
M  CHG  2  21  -1  22   1
M  END
> <i_ionizer_Ion_state_n>
3

> <i_ionizer_Tot_Q>
0

> <s_ionizer_Ion_centers>
21_22

> <s_ionizer_Ion_types>
OM_N4

> <s_ionizer_Ion_ctrs_in>
8_12

> <r_ionizer_Ionization_penalty>
0.000594063

> <r_ionizer_Ionization_penalty_charging>
0.000594063

> <r_ionizer_Ionization_penalty_neutral>
0

> <i_mmod_Serial_Number-OPLS-2005>
830

> <i_i_glide_lignum>
818

> <r_i_docking_score>
-3.18633

> <r_i_glide_gscore>
-3.18633

> <r_i_glide_lipo>
-0.323937

> <r_i_glide_hbond>
-1.57022

> <r_i_glide_metal>
0

> <r_i_glide_eburp>
-2.47596

> <r_i_glide_evdw>
-12.3982

> <r_i_glide_ecoul>
-11.9122

> <r_i_glide_erotb>
2.95945

> <r_i_glide_esite>
0.40743

> <r_i_glide_emodel>
-56.0954

> <r_i_glide_energy>
-24.3105

> <r_i_glide_einternal>
0.5266

> <i_i_glide_confnum>
42

> <i_i_glide_posenum>
342

$$$$
C01888
                    3D
 Structure written by MMmdl.
 13 12  0  0  1  0            999 V2000
    1.2444    0.4554    3.4143 C   0  0  0  0  0  0
    2.3821   -0.5278    3.7025 C   0  0  0  0  0  0
    0.5108    0.2864    2.0901 C   0  0  0  0  0  0
    0.9269    1.3440    4.2047 O   0  0  0  0  0  0
    2.0167   -1.5510    3.6122 H   0  0  0  0  0  0
    3.1824   -0.3888    2.9753 H   0  0  0  0  0  0
   -0.2753    1.0352    1.9893 H   0  0  0  0  0  0
    1.2033    0.3988    1.2558 H   0  0  0  0  0  0
    0.0549   -0.7021    2.0326 H   0  0  0  0  0  0
    3.6503   -0.9449    5.2623 H   0  0  0  0  0  0
    3.2367    0.6500    5.1374 H   0  0  0  0  0  0
    2.8990   -0.2994    5.0653 N   0  3  0  0  0  0
    2.1507   -0.4327    5.7308 H   0  0  0  0  0  0
  1  2  1  0  0  0
  1  3  1  0  0  0
  1  4  2  0  0  0
  2  5  1  0  0  0
  2  6  1  0  0  0
  2 12  1  0  0  0
  3  7  1  0  0  0
  3  8  1  0  0  0
  3  9  1  0  0  0
 10 12  1  0  0  0
 11 12  1  0  0  0
 12 13  1  0  0  0
M  CHG  1  12   1
M  END
> <i_ionizer_Ion_state_n>
1

> <i_ionizer_Tot_Q>
1

> <s_ionizer_Ion_centers>
12

> <s_ionizer_Ion_types>
N5

> <s_ionizer_Ion_ctrs_in>
5

> <r_ionizer_Ionization_penalty>
0.000187331

> <r_ionizer_Ionization_penalty_charging>
0.000187331

> <r_ionizer_Ionization_penalty_neutral>
0

> <i_mmod_Serial_Number-OPLS-2005>
463

> <i_i_glide_lignum>
458

> <r_i_docking_score>
-3.15564

> <r_i_glide_gscore>
-3.15564

> <r_i_glide_lipo>
-0.19724

> <r_i_glide_hbond>
-0.968342

> <r_i_glide_metal>
0

> <r_i_glide_eburp>
-2.5

> <r_i_glide_evdw>
-9.57067

> <r_i_glide_ecoul>
-6.05909

> <r_i_glide_erotb>
2.17027

> <r_i_glide_esite>
-0.288765

> <r_i_glide_emodel>
-23.4061

> <r_i_glide_energy>
-15.6298

> <r_i_glide_einternal>
0.00864832

> <i_i_glide_confnum>
3

> <i_i_glide_posenum>
128

$$$$
C00065
                    3D
 Structure written by MMmdl.
 14 13  0  0  1  0            999 V2000
    2.9956    0.3314    2.7540 C   0  0  2  0  0  0
    1.4767    0.2018    2.9475 C   0  0  0  0  0  0
    3.4895   -0.2887    1.4256 C   0  0  0  0  0  0
    0.9138    1.0337    3.6947 O   0  0  0  0  0  0
    2.8347    0.2655    0.3009 O   0  0  0  0  0  0
    3.2693    1.3880    2.7664 H   0  0  0  0  0  0
    4.5620   -0.1280    1.3109 H   0  0  0  0  0  0
    3.3311   -1.3682    1.4193 H   0  0  0  0  0  0
    3.3380    0.1440    4.7529 H   0  0  0  0  0  0
    3.3914   -1.2817    3.9300 H   0  0  0  0  0  0
    3.2451   -0.0642   -0.4841 H   0  0  0  0  0  0
    3.6530   -0.3063    3.9057 N   0  3  0  0  0  0
    4.6551   -0.2189    3.8221 H   0  0  0  0  0  0
    0.8946   -0.6968    2.3016 O   0  5  0  0  0  0
  1  2  1  0  0  0
  1  3  1  0  0  0
  1  6  1  0  0  0
  1 12  1  0  0  0
  2  4  2  0  0  0
  2 14  1  0  0  0
  3  5  1  0  0  0
  3  7  1  0  0  0
  3  8  1  0  0  0
  5 11  1  0  0  0
  9 12  1  0  0  0
 10 12  1  0  0  0
 12 13  1  0  0  0
M  CHG  2  12   1  14  -1
M  END
> <i_ionizer_Ion_state_n>
3

> <i_ionizer_Tot_Q>
0

> <s_ionizer_Ion_centers>
12_14

> <s_ionizer_Ion_types>
N5_OM

> <s_ionizer_Ion_ctrs_in>
4_5

> <r_ionizer_Ionization_penalty>
0.000779521

> <r_ionizer_Ionization_penalty_charging>
0.000779521

> <r_ionizer_Ionization_penalty_neutral>
0

> <s_st_Chirality_1>
1_S_12_2_3_6

> <i_mmod_Serial_Number-OPLS-2005>
46

> <i_i_glide_lignum>
45

> <r_i_docking_score>
-3.11167

> <r_i_glide_gscore>
-3.11167

> <r_i_glide_lipo>
-0.141606

> <r_i_glide_hbond>
-0.256451

> <r_i_glide_metal>
0

> <r_i_glide_eburp>
-2.5

> <r_i_glide_evdw>
-8.94706

> <r_i_glide_ecoul>
-5.32546

> <r_i_glide_erotb>
1.29905

> <r_i_glide_esite>
-0.264351

> <r_i_glide_emodel>
-29.691

> <r_i_glide_energy>
-14.2725

> <r_i_glide_einternal>
0.641846

> <i_i_glide_confnum>
1

> <i_i_glide_posenum>
894

$$$$
C00184
                    3D
 Structure written by MMmdl.
 12 11  0  0  1  0            999 V2000
    4.9919    1.3473    4.6757 C   0  0  0  0  0  0
    6.1247    0.6482    5.4335 C   0  0  0  0  0  0
    4.0684    0.4350    3.8625 C   0  0  0  0  0  0
    4.8332    2.5691    4.7176 O   0  0  0  0  0  0
    5.6753    0.1012    6.6584 O   0  0  0  0  0  0
    3.1775   -0.2833    4.6943 O   0  0  0  0  0  0
    6.5370   -0.1474    4.8127 H   0  0  0  0  0  0
    6.9234    1.3637    5.6292 H   0  0  0  0  0  0
    3.4965    1.0373    3.1564 H   0  0  0  0  0  0
    4.6709   -0.2679    3.2870 H   0  0  0  0  0  0
    5.2775   -0.7388    6.4879 H   0  0  0  0  0  0
    3.6700   -0.9229    5.1856 H   0  0  0  0  0  0
  1  2  1  0  0  0
  1  3  1  0  0  0
  1  4  2  0  0  0
  2  5  1  0  0  0
  2  7  1  0  0  0
  2  8  1  0  0  0
  3  6  1  0  0  0
  3  9  1  0  0  0
  3 10  1  0  0  0
  5 11  1  0  0  0
  6 12  1  0  0  0
M  END
> <i_ionizer_Ion_state_n>
0

> <i_ionizer_Tot_Q>
0

> <s_ionizer_Ion_centers>


> <s_ionizer_Ion_types>


> <s_ionizer_Ion_ctrs_in>


> <r_ionizer_Ionization_penalty>
0

> <r_ionizer_Ionization_penalty_charging>
0

> <r_ionizer_Ionization_penalty_neutral>
0

> <i_mmod_Serial_Number-OPLS-2005>
129

> <i_i_glide_lignum>
127

> <r_i_docking_score>
-3.09741

> <r_i_glide_gscore>
-3.09741

> <r_i_glide_lipo>
-0.186806

> <r_i_glide_hbond>
-1.35

> <r_i_glide_metal>
0

> <r_i_glide_eburp>
-2.5

> <r_i_glide_evdw>
-9.52694

> <r_i_glide_ecoul>
-12.7702

> <r_i_glide_erotb>
3.2706

> <r_i_glide_esite>
-0.292027

> <r_i_glide_emodel>
-27.602

> <r_i_glide_energy>
-22.2972

> <r_i_glide_einternal>
1.33747

> <i_i_glide_confnum>
6

> <i_i_glide_posenum>
92

$$$$
C05804
                    3D
 Structure written by MMmdl.
 97 97  0  0  1  0            999 V2000
   -0.2305   10.4249   15.5293 C   0  0  0  0  0  0
   -1.5212    9.6296   15.4423 C   0  0  0  0  0  0
   -1.8238    8.6499   14.5658 C   0  0  0  0  0  0
   -3.1590    7.9241   14.6348 C   0  0  0  0  0  0
   -0.8958    8.1785   13.4561 C   0  0  0  0  0  0
   -3.0061    6.3974   14.7152 C   0  0  0  0  0  0
   -0.2483   11.1687   11.2487 C   0  0  0  0  0  0
   -0.3580   11.1123   12.7634 C   0  0  0  0  0  0
   -0.2734   12.1346   13.6402 C   0  0  0  0  0  0
   -0.4392   11.8946   15.1335 C   0  0  0  0  0  0
   -0.0235   13.5852   13.2537 C   0  0  0  0  0  0
   -1.9545    9.3144    6.9487 C   0  0  0  0  0  0
   -2.0103    9.6332    8.4323 C   0  0  0  0  0  0
   -1.4740   10.6978    9.0638 C   0  0  0  0  0  0
   -1.5920   10.8527   10.5727 C   0  0  0  0  0  0
   -0.7171   11.8159    8.3624 C   0  0  0  0  0  0
   -2.0281    8.3936    2.7033 C   0  0  0  0  0  0
   -2.2308    8.5951    4.1947 C   0  0  0  0  0  0
   -3.3287    9.0722    4.8167 C   0  0  0  0  0  0
   -3.3581    9.2451    6.3277 C   0  0  0  0  0  0
   -4.6086    9.4784    4.1012 C   0  0  0  0  0  0
    1.5905    5.0126    3.2668 C   0  0  0  0  0  0
    0.1672    5.5300    3.1229 C   0  0  0  0  0  0
   -0.2785    6.5647    2.3792 C   0  0  0  0  0  0
   -1.7579    6.9204    2.3598 C   0  0  0  0  0  0
    0.5974    7.4554    1.5084 C   0  0  0  0  0  0
   -4.3294    5.7143   15.0132 C   0  0  0  0  0  0
   -4.5294    4.5549   15.6730 C   0  0  0  0  0  0
   -5.9289    4.0224   15.9131 C   0  0  0  0  0  0
   -3.4269    3.6755   16.2401 C   0  0  0  0  0  0
    1.7287    3.6397    2.6051 C   0  0  0  0  0  0
    1.0272    2.5166    3.2964 C   0  0  0  0  0  0
    2.4569    3.4187    1.4761 C   0  0  0  0  0  0
    1.1712    1.1588    2.7245 C   0  0  0  0  0  0
    0.3388    2.6988    4.3011 O   0  0  0  0  0  0
    2.5990    2.0506    0.9091 C   0  0  0  0  0  0
    3.1944    4.5071    0.7015 C   0  0  0  0  0  0
    1.9093    0.9522    1.6067 C   0  0  0  0  0  0
    0.5054    0.1682    3.4148 O   0  0  0  0  0  0
    3.2667    1.8231   -0.0993 O   0  0  0  0  0  0
    1.2109   -1.0303    3.7110 C   0  0  0  0  0  0
    0.5516    9.9698   14.9250 H   0  0  0  0  0  0
    0.1230   10.3686   16.5593 H   0  0  0  0  0  0
   -2.2599    9.9030   16.1819 H   0  0  0  0  0  0
   -3.7225    8.2767   15.4999 H   0  0  0  0  0  0
   -3.7488    8.1947   13.7581 H   0  0  0  0  0  0
   -0.4248    7.2344   13.7295 H   0  0  0  0  0  0
   -1.4614    8.0212   12.5374 H   0  0  0  0  0  0
   -0.1120    8.8969   13.2234 H   0  0  0  0  0  0
   -2.5561    6.0075   13.8050 H   0  0  0  0  0  0
   -2.3147    6.1401   15.5183 H   0  0  0  0  0  0
    0.1069   12.1390   10.9109 H   0  0  0  0  0  0
    0.4988   10.4373   10.9389 H   0  0  0  0  0  0
   -0.5268   10.1196   13.1552 H   0  0  0  0  0  0
   -1.4356   12.2237   15.4313 H   0  0  0  0  0  0
    0.2637   12.5203   15.6855 H   0  0  0  0  0  0
    0.4089   13.6990   12.2622 H   0  0  0  0  0  0
   -0.9540   14.1518   13.2869 H   0  0  0  0  0  0
    0.6753   14.0429   13.9542 H   0  0  0  0  0  0
   -1.3323   10.0311    6.4167 H   0  0  0  0  0  0
   -1.4556    8.3512    6.8368 H   0  0  0  0  0  0
   -2.5465    8.9032    9.0215 H   0  0  0  0  0  0
   -2.0064    9.9387   11.0007 H   0  0  0  0  0  0
   -2.3138   11.6418   10.7874 H   0  0  0  0  0  0
   -0.9148   11.8577    7.2930 H   0  0  0  0  0  0
   -1.0105   12.7817    8.7745 H   0  0  0  0  0  0
    0.3567   11.6978    8.5077 H   0  0  0  0  0  0
   -2.8762    8.7749    2.1391 H   0  0  0  0  0  0
   -1.1756    9.0030    2.4016 H   0  0  0  0  0  0
   -1.3791    8.3166    4.7985 H   0  0  0  0  0  0
   -3.9126    8.4211    6.7794 H   0  0  0  0  0  0
   -3.9164   10.1517    6.5643 H   0  0  0  0  0  0
   -4.6868    9.0603    3.0994 H   0  0  0  0  0  0
   -5.4765    9.1252    4.6584 H   0  0  0  0  0  0
   -4.6738   10.5638    4.0253 H   0  0  0  0  0  0
    2.3338    5.6915    2.8594 H   0  0  0  0  0  0
    1.8307    4.9611    4.3293 H   0  0  0  0  0  0
   -0.5571    4.9806    3.7074 H   0  0  0  0  0  0
   -2.2943    6.2834    3.0647 H   0  0  0  0  0  0
   -2.1613    6.6854    1.3740 H   0  0  0  0  0  0
    1.6432    7.1622    1.4856 H   0  0  0  0  0  0
    0.2336    7.4406    0.4809 H   0  0  0  0  0  0
    0.5627    8.4853    1.8619 H   0  0  0  0  0  0
   -5.1935    6.2445   14.6393 H   0  0  0  0  0  0
   -6.0469    3.0439   15.4470 H   0  0  0  0  0  0
   -6.1144    3.9175   16.9823 H   0  0  0  0  0  0
   -6.6899    4.6863   15.5015 H   0  0  0  0  0  0
   -3.4505    3.7023   17.3297 H   0  0  0  0  0  0
   -3.5792    2.6427   15.9258 H   0  0  0  0  0  0
   -2.4297    3.9623   15.9136 H   0  0  0  0  0  0
    2.8887    5.5118    0.9838 H   0  0  0  0  0  0
    4.2694    4.4216    0.8623 H   0  0  0  0  0  0
    3.0027    4.4189   -0.3687 H   0  0  0  0  0  0
    2.0270   -0.0291    1.1733 H   0  0  0  0  0  0
    0.5527   -1.7075    4.2550 H   0  0  0  0  0  0
    1.5296   -1.5428    2.8022 H   0  0  0  0  0  0
    2.0788   -0.8386    4.3435 H   0  0  0  0  0  0
  1 10  1  0  0  0
  1  2  1  0  0  0
  1 42  1  0  0  0
  1 43  1  0  0  0
  2  3  2  0  0  0
  2 44  1  0  0  0
  3  4  1  0  0  0
  3  5  1  0  0  0
  4  6  1  0  0  0
  4 45  1  0  0  0
  4 46  1  0  0  0
  5 47  1  0  0  0
  5 48  1  0  0  0
  5 49  1  0  0  0
  6 27  1  0  0  0
  6 50  1  0  0  0
  6 51  1  0  0  0
  7  8  1  0  0  0
  7 15  1  0  0  0
  7 52  1  0  0  0
  7 53  1  0  0  0
  8  9  2  0  0  0
  8 54  1  0  0  0
  9 10  1  0  0  0
  9 11  1  0  0  0
 10 55  1  0  0  0
 10 56  1  0  0  0
 11 57  1  0  0  0
 11 58  1  0  0  0
 11 59  1  0  0  0
 12 20  1  0  0  0
 12 13  1  0  0  0
 12 60  1  0  0  0
 12 61  1  0  0  0
 13 14  2  0  0  0
 13 62  1  0  0  0
 14 15  1  0  0  0
 14 16  1  0  0  0
 15 63  1  0  0  0
 15 64  1  0  0  0
 16 65  1  0  0  0
 16 66  1  0  0  0
 16 67  1  0  0  0
 17 25  1  0  0  0
 17 18  1  0  0  0
 17 68  1  0  0  0
 17 69  1  0  0  0
 18 19  2  0  0  0
 18 70  1  0  0  0
 19 20  1  0  0  0
 19 21  1  0  0  0
 20 71  1  0  0  0
 20 72  1  0  0  0
 21 73  1  0  0  0
 21 74  1  0  0  0
 21 75  1  0  0  0
 22 23  1  0  0  0
 22 31  1  0  0  0
 22 76  1  0  0  0
 22 77  1  0  0  0
 23 24  2  0  0  0
 23 78  1  0  0  0
 24 25  1  0  0  0
 24 26  1  0  0  0
 25 79  1  0  0  0
 25 80  1  0  0  0
 26 81  1  0  0  0
 26 82  1  0  0  0
 26 83  1  0  0  0
 27 28  2  0  0  0
 27 84  1  0  0  0
 28 29  1  0  0  0
 28 30  1  0  0  0
 29 85  1  0  0  0
 29 86  1  0  0  0
 29 87  1  0  0  0
 30 88  1  0  0  0
 30 89  1  0  0  0
 30 90  1  0  0  0
 31 32  1  0  0  0
 31 33  2  0  0  0
 32 34  1  0  0  0
 32 35  2  0  0  0
 33 36  1  0  0  0
 33 37  1  0  0  0
 34 38  2  0  0  0
 34 39  1  0  0  0
 36 40  2  0  0  0
 36 38  1  0  0  0
 37 91  1  0  0  0
 37 92  1  0  0  0
 37 93  1  0  0  0
 38 94  1  0  0  0
 39 41  1  0  0  0
 41 95  1  0  0  0
 41 96  1  0  0  0
 41 97  1  0  0  0
M  END
> <i_ionizer_Ion_state_n>
0

> <i_ionizer_Tot_Q>
0

> <s_ionizer_Ion_centers>


> <s_ionizer_Ion_types>


> <s_ionizer_Ion_ctrs_in>


> <r_ionizer_Ionization_penalty>
0

> <r_ionizer_Ionization_penalty_charging>
0

> <r_ionizer_Ionization_penalty_neutral>
0

> <s_st_EZ_1>
1_2_3_4_E

> <s_st_EZ_2>
7_8_9_10_E

> <s_st_EZ_3>
12_13_14_15_E

> <s_st_EZ_4>
17_18_19_20_E

> <s_st_EZ_5>
22_23_24_25_E

> <i_mmod_Serial_Number-OPLS-2005>
795

> <i_i_glide_lignum>
786

> <r_i_docking_score>
-3.09312

> <r_i_glide_gscore>
-3.09312

> <r_i_glide_lipo>
-1.77378

> <r_i_glide_hbond>
-0.368746

> <r_i_glide_metal>
0

> <r_i_glide_eburp>
1.07878e-17

> <r_i_glide_evdw>
-31.4294

> <r_i_glide_ecoul>
-3.20779

> <r_i_glide_erotb>
1.19224

> <r_i_glide_esite>
0.692301

> <r_i_glide_emodel>
-47.5418

> <r_i_glide_energy>
-34.6372

> <r_i_glide_einternal>
14.9368

> <i_i_glide_confnum>
52

> <i_i_glide_posenum>
205

$$$$
C01136
                    3D
 Structure written by MMmdl.
 34 33  0  0  1  0            999 V2000
    4.0888    1.1783    2.7036 C   0  0  1  0  0  0
    4.6950    0.0913    1.7866 C   0  0  0  0  0  0
    2.3212    1.5314    2.3545 S   0  0  0  0  0  0
    4.3830    0.9278    4.2000 C   0  0  0  0  0  0
    5.1004    0.6021    0.3931 C   0  0  0  0  0  0
    1.4672    0.0490    2.9619 C   0  0  0  0  0  0
    5.8819    0.8624    4.5356 C   0  0  0  0  0  0
    5.6712   -0.5116   -0.4969 C   0  0  0  0  0  0
    1.6568   -0.2276    4.4481 C   0  0  0  0  0  0
    0.7838   -0.6960    2.2635 O   0  0  0  0  0  0
    6.0825    0.5001    6.2995 S   0  0  0  0  0  0
    6.9430   -1.1445    0.0969 C   0  0  0  0  0  0
    8.1494   -0.1999    0.0884 C   0  0  0  0  0  0
    9.2558   -0.6305    0.6975 N   0  0  0  0  0  0
    8.0954    0.8990   -0.4598 O   0  0  0  0  0  0
    4.6040    2.1054    2.4494 H   0  0  0  0  0  0
    5.5855   -0.3097    2.2721 H   0  0  0  0  0  0
    4.0191   -0.7556    1.6826 H   0  0  0  0  0  0
    3.8996    1.6768    4.8250 H   0  0  0  0  0  0
    3.9287   -0.0225    4.4839 H   0  0  0  0  0  0
    4.2383    1.0460   -0.1051 H   0  0  0  0  0  0
    5.8405    1.3963    0.4978 H   0  0  0  0  0  0
    6.3767    0.0842    3.9540 H   0  0  0  0  0  0
    6.3794    1.8068    4.3152 H   0  0  0  0  0  0
    4.9100   -1.2799   -0.6409 H   0  0  0  0  0  0
    5.8918   -0.1056   -1.4854 H   0  0  0  0  0  0
    1.2818    0.6081    5.0391 H   0  0  0  0  0  0
    1.1196   -1.1283    4.7469 H   0  0  0  0  0  0
    2.7138   -0.3666    4.6752 H   0  0  0  0  0  0
    5.4155   -0.6574    6.2828 H   0  0  0  0  0  0
    6.7464   -1.4605    1.1225 H   0  0  0  0  0  0
    7.2072   -2.0423   -0.4629 H   0  0  0  0  0  0
   10.0746   -0.0402    0.7138 H   0  0  0  0  0  0
    9.2722   -1.5389    1.1374 H   0  0  0  0  0  0
  1  2  1  0  0  0
  1  3  1  0  0  0
  1  4  1  0  0  0
  1 16  1  0  0  0
  2  5  1  0  0  0
  2 17  1  0  0  0
  2 18  1  0  0  0
  3  6  1  0  0  0
  4  7  1  0  0  0
  4 19  1  0  0  0
  4 20  1  0  0  0
  5  8  1  0  0  0
  5 21  1  0  0  0
  5 22  1  0  0  0
  6  9  1  0  0  0
  6 10  2  0  0  0
  7 11  1  0  0  0
  7 23  1  0  0  0
  7 24  1  0  0  0
  8 12  1  0  0  0
  8 25  1  0  0  0
  8 26  1  0  0  0
  9 27  1  0  0  0
  9 28  1  0  0  0
  9 29  1  0  0  0
 11 30  1  0  0  0
 12 13  1  0  0  0
 12 31  1  0  0  0
 12 32  1  0  0  0
 13 14  1  0  0  0
 13 15  2  0  0  0
 14 33  1  0  0  0
 14 34  1  0  0  0
M  END
> <i_ionizer_Ion_state_n>
0

> <i_ionizer_Tot_Q>
0

> <s_ionizer_Ion_centers>


> <s_ionizer_Ion_types>


> <s_ionizer_Ion_ctrs_in>


> <r_ionizer_Ionization_penalty>
0.00187065

> <r_ionizer_Ionization_penalty_charging>
0

> <r_ionizer_Ionization_penalty_neutral>
0.00187065

> <s_st_Chirality_1>
1_R_3_4_2_16

> <i_mmod_Serial_Number-OPLS-2005>
399

> <i_i_glide_lignum>
395

> <r_i_docking_score>
-3.07599

> <r_i_glide_gscore>
-3.07599

> <r_i_glide_lipo>
-0.7077

> <r_i_glide_hbond>
-0.45

> <r_i_glide_metal>
0

> <r_i_glide_eburp>
-1.89851

> <r_i_glide_evdw>
-32.8258

> <r_i_glide_ecoul>
-5.77453

> <r_i_glide_erotb>
4.4986

> <r_i_glide_esite>
-1.31486

> <r_i_glide_emodel>
-50.3625

> <r_i_glide_energy>
-38.6004

> <r_i_glide_einternal>
2.63114

> <i_i_glide_confnum>
106

> <i_i_glide_posenum>
818

$$$$
C00445
                    3D
 Structure written by MMmdl.
 53 56  0  0  1  0            999 V2000
   -2.4034    9.7174    5.2695 N   0  3  0  0  0  0
   -2.5872   10.5192    6.3892 C   0  0  0  0  0  0
   -3.1576    9.9348    4.0273 C   0  0  1  0  0  0
   -1.6994    8.5800    5.1776 C   0  0  0  0  0  0
   -3.7295   11.2474    6.4585 C   0  0  0  0  0  0
   -1.6083   10.5949    7.4792 C   0  0  0  0  0  0
   -2.9145    8.6604    3.2079 C   0  0  0  0  0  0
   -4.6216   10.3499    4.3037 C   0  0  0  0  0  0
   -1.9304    7.9344    4.0245 N   0  0  0  0  0  0
   -4.7107   11.2113    5.4794 N   0  0  0  0  0  0
   -4.0222   12.0806    7.5403 N   0  0  0  0  0  0
   -1.9726   11.4185    8.4921 N   0  0  0  0  0  0
   -0.5364    9.9943    7.5088 O   0  0  0  0  0  0
   -1.0986    6.8416    3.5928 C   0  0  0  0  0  0
   -3.1677   12.1516    8.5127 C   0  0  0  0  0  0
   -1.4626    6.1266    2.4353 C   0  0  0  0  0  0
    0.0706    6.4996    4.3031 C   0  0  0  0  0  0
   -3.3087   12.9222    9.6475 N   0  0  0  0  0  0
   -0.6585    5.0591    1.9915 C   0  0  0  0  0  0
    0.8707    5.4303    3.8555 C   0  0  0  0  0  0
    0.5071    4.6944    2.7025 C   0  0  0  0  0  0
    1.3651    3.5668    2.2027 C   0  0  0  0  0  0
    1.1587    2.3836    2.8078 N   0  0  0  0  0  0
    2.1563    3.7495    1.2782 O   0  0  0  0  0  0
    1.8221    1.0998    2.5672 C   0  0  1  0  0  0
    3.2856    1.0291    3.0864 C   0  0  0  0  0  0
    0.9032   -0.0789    2.9206 C   0  0  0  0  0  0
    4.2902    1.9809    2.3951 C   0  0  0  0  0  0
    0.1324   -0.4904    2.0253 O   0  0  0  0  0  0
    4.3067    1.8940    0.8642 C   0  0  0  0  0  0
    3.2294    1.6490    0.2766 O   0  0  0  0  0  0
   -2.6648   10.7678    3.5234 H   0  0  0  0  0  0
   -1.0607    8.1896    5.9593 H   0  0  0  0  0  0
   -3.8193    8.0623    3.0971 H   0  0  0  0  0  0
   -2.5313    8.8994    2.2163 H   0  0  0  0  0  0
   -5.0336   10.8802    3.4448 H   0  0  0  0  0  0
   -5.2469    9.4719    4.4685 H   0  0  0  0  0  0
   -5.5481   11.7645    5.5976 H   0  0  0  0  0  0
   -1.3332   11.5074    9.2677 H   0  0  0  0  0  0
   -2.3485    6.3936    1.8781 H   0  0  0  0  0  0
    0.3661    7.0404    5.1891 H   0  0  0  0  0  0
   -2.6301   12.9634   10.3938 H   0  0  0  0  0  0
   -4.1129   13.5097    9.8158 H   0  0  0  0  0  0
   -0.9441    4.5185    1.1003 H   0  0  0  0  0  0
    1.7692    5.1866    4.4044 H   0  0  0  0  0  0
    0.4543    2.3663    3.5297 H   0  0  0  0  0  0
    1.9005    1.0703    1.4798 H   0  0  0  0  0  0
    3.2975    1.2098    4.1622 H   0  0  0  0  0  0
    3.6701    0.0182    2.9576 H   0  0  0  0  0  0
    4.0417    3.0095    2.6567 H   0  0  0  0  0  0
    5.2981    1.8101    2.7748 H   0  0  0  0  0  0
    0.9590   -0.5252    4.0878 O   0  5  0  0  0  0
    5.4034    2.1021    0.3011 O   0  5  0  0  0  0
  1  2  1  0  0  0
  1  3  1  0  0  0
  1  4  2  0  0  0
  2  5  2  0  0  0
  2  6  1  0  0  0
  3  7  1  0  0  0
  3  8  1  0  0  0
  3 32  1  0  0  0
  4  9  1  0  0  0
  4 33  1  0  0  0
  5 10  1  0  0  0
  5 11  1  0  0  0
  6 12  1  0  0  0
  6 13  2  0  0  0
  7  9  1  0  0  0
  7 34  1  0  0  0
  7 35  1  0  0  0
  8 10  1  0  0  0
  8 36  1  0  0  0
  8 37  1  0  0  0
  9 14  1  0  0  0
 10 38  1  0  0  0
 11 15  2  0  0  0
 12 15  1  0  0  0
 12 39  1  0  0  0
 14 16  1  0  0  0
 14 17  2  0  0  0
 15 18  1  0  0  0
 16 19  2  0  0  0
 16 40  1  0  0  0
 17 20  1  0  0  0
 17 41  1  0  0  0
 18 42  1  0  0  0
 18 43  1  0  0  0
 19 21  1  0  0  0
 19 44  1  0  0  0
 20 21  2  0  0  0
 20 45  1  0  0  0
 21 22  1  0  0  0
 22 23  1  0  0  0
 22 24  2  0  0  0
 23 25  1  0  0  0
 23 46  1  0  0  0
 25 26  1  0  0  0
 25 27  1  0  0  0
 25 47  1  0  0  0
 26 28  1  0  0  0
 26 48  1  0  0  0
 26 49  1  0  0  0
 27 29  2  0  0  0
 27 52  1  0  0  0
 28 30  1  0  0  0
 28 50  1  0  0  0
 28 51  1  0  0  0
 30 31  2  0  0  0
 30 53  1  0  0  0
M  CHG  3   1   1  52  -1  53  -1
M  END
> <i_ionizer_Ion_state_n>
3

> <i_ionizer_Tot_Q>
-1

> <s_ionizer_Ion_centers>
52_53

> <s_ionizer_Ion_types>
OM_OM

> <s_ionizer_Ion_ctrs_in>
29_32

> <r_ionizer_Ionization_penalty>
0.00118438

> <r_ionizer_Ionization_penalty_charging>
0.00118438

> <r_ionizer_Ionization_penalty_neutral>
0

> <s_st_Chirality_1>
25_S_23_27_26_47

> <s_st_Chirality_2>
3_R_1_7_8_32

> <s_st_EZ_1>
2_1_4_9_E

> <i_mmod_Serial_Number-OPLS-2005>
239

> <i_i_glide_lignum>
237

> <r_i_docking_score>
-3.06507

> <r_i_glide_gscore>
-3.06507

> <r_i_glide_lipo>
-1.05908

> <r_i_glide_hbond>
-0.211023

> <r_i_glide_metal>
0

> <r_i_glide_eburp>
-0.34526

> <r_i_glide_evdw>
-26.208

> <r_i_glide_ecoul>
-6.6745

> <r_i_glide_erotb>
0.666811

> <r_i_glide_esite>
0.64758

> <r_i_glide_emodel>
-71.6707

> <r_i_glide_energy>
-32.8825

> <r_i_glide_einternal>
6.25063

> <i_i_glide_confnum>
29

> <i_i_glide_posenum>
260

$$$$
C01260
                    3D
 Structure written by MMmdl.
 77 82  0  0  1  0            999 V2000
    0.3506    4.8208    2.2654 N   0  0  0  0  0  0
    1.3445    3.8929    2.4867 C   0  0  0  0  0  0
    0.5567    6.2685    1.9542 C   0  0  2  0  0  0
   -0.8309    4.1222    2.4144 C   0  0  0  0  0  0
    0.6780    2.6709    2.7739 C   0  0  0  0  0  0
    2.6971    4.0783    2.4537 N   0  0  0  0  0  0
   -0.3147    6.9980    2.7660 O   0  0  0  0  0  0
    0.1994    6.5547    0.4881 C   0  0  1  0  0  0
   -0.6962    2.8576    2.7160 N   0  0  0  0  0  0
    1.5179    1.5638    3.0551 C   0  0  0  0  0  0
    3.3549    2.9497    2.7330 C   0  0  0  0  0  0
   -1.1686    7.8135    1.9708 C   0  0  1  0  0  0
   -1.2006    7.1409    0.6003 C   0  0  1  0  0  0
    1.1145    7.4668   -0.0903 O   0  0  0  0  0  0
    2.8590    1.7427    3.0247 N   0  0  0  0  0  0
    1.0496    0.3456    3.3541 N   0  0  0  0  0  0
   -2.5258    7.9898    2.6657 C   0  0  0  0  0  0
   -1.5011    8.0300   -0.4611 O   0  0  0  0  0  0
   -2.3837    8.6839    3.8927 O   0  0  0  0  0  0
   -3.6966    8.8999    4.9555 P   0  0  0  0  0  0
   -4.5188   10.2257    4.2897 O   0  0  0  0  0  0
   -4.5561    7.6988    4.8679 O   0  0  0  0  0  0
   -4.9398   11.7763    4.8396 P   0  0  0  0  0  0
   -6.4979   11.9932    4.2196 O   0  0  0  0  0  0
   -5.0638   11.7386    6.3156 O   0  0  0  0  0  0
   -8.0189   11.4403    4.7057 P   0  0  0  0  0  0
   -8.9171   11.2418    3.2754 O   0  0  0  0  0  0
   -7.8182   10.1040    5.3144 O   0  0  0  0  0  0
  -10.0761   12.1689    2.4476 P   0  0  0  0  0  0
   -9.1979   13.4365    1.7306 O   0  0  0  0  0  0
  -10.6369   11.3301    1.3627 O   0  0  0  0  0  0
   -8.2819   14.2141    2.4740 C   0  0  0  0  0  0
   -7.5887   15.2152    1.5403 C   0  0  1  0  0  0
   -6.5324   15.8818    2.2238 O   0  0  0  0  0  0
   -6.8736   14.5752    0.3518 C   0  0  2  0  0  0
   -5.5591   16.3020    1.3145 C   0  0  2  0  0  0
   -5.8705   15.6535   -0.0428 C   0  0  2  0  0  0
   -7.7464   14.2188   -0.7048 O   0  0  0  0  0  0
   -4.2362   15.8120    1.8005 N   0  0  0  0  0  0
   -6.4014   16.6015   -0.9524 O   0  0  0  0  0  0
   -3.0057   16.1757    1.3017 C   0  0  0  0  0  0
   -3.9615   14.9202    2.8159 C   0  0  0  0  0  0
   -2.0492   15.4649    2.0761 C   0  0  0  0  0  0
   -2.7300   17.0297    0.2726 N   0  0  0  0  0  0
   -2.6940   14.6751    3.0183 N   0  0  0  0  0  0
   -0.6925   15.6912    1.7359 C   0  0  0  0  0  0
   -1.4149   17.1344    0.0637 C   0  0  0  0  0  0
   -0.4124   16.5304    0.7116 N   0  0  0  0  0  0
    0.3282   15.1081    2.3779 N   0  0  0  0  0  0
    1.5977    6.4731    2.2063 H   0  0  0  0  0  0
   -1.8039    4.5790    2.3039 H   0  0  0  0  0  0
    0.2069    5.6393   -0.1059 H   0  0  0  0  0  0
    4.4324    3.0228    2.7243 H   0  0  0  0  0  0
   -0.6809    8.7855    1.8789 H   0  0  0  0  0  0
   -1.9146    6.3234    0.6038 H   0  0  0  0  0  0
    0.9789    8.3031    0.3318 H   0  0  0  0  0  0
    1.6905   -0.4022    3.5735 H   0  0  0  0  0  0
    0.0526    0.1764    3.3240 H   0  0  0  0  0  0
   -2.9794    7.0120    2.8317 H   0  0  0  0  0  0
   -3.2076    8.5503    2.0265 H   0  0  0  0  0  0
   -2.1039    8.6939   -0.1494 H   0  0  0  0  0  0
   -8.7740   14.7195    3.3050 H   0  0  0  0  0  0
   -7.5500   13.5287    2.9022 H   0  0  0  0  0  0
   -8.3011   15.9586    1.1776 H   0  0  0  0  0  0
   -6.3350   13.6864    0.6833 H   0  0  0  0  0  0
   -5.4772   17.3894    1.2925 H   0  0  0  0  0  0
   -4.9717   15.2246   -0.4889 H   0  0  0  0  0  0
   -8.0382   15.0102   -1.1300 H   0  0  0  0  0  0
   -6.4370   16.2066   -1.8103 H   0  0  0  0  0  0
   -4.7354   14.4611    3.4138 H   0  0  0  0  0  0
   -1.1220   17.8010   -0.7340 H   0  0  0  0  0  0
    1.2783   15.3104    2.1056 H   0  0  0  0  0  0
    0.1378   14.5128    3.1714 H   0  0  0  0  0  0
   -3.1445    9.3075    6.2679 O   0  5  0  0  0  0
   -4.0374   12.7617    4.2022 O   0  5  0  0  0  0
   -8.6428   12.5063    5.5227 O   0  5  0  0  0  0
  -10.9984   12.7648    3.4404 O   0  5  0  0  0  0
  1  2  1  0  0  0
  1  3  1  0  0  0
  1  4  1  0  0  0
  2  5  2  0  0  0
  2  6  1  0  0  0
  3  7  1  0  0  0
  3  8  1  0  0  0
  3 50  1  0  0  0
  4  9  2  0  0  0
  4 51  1  0  0  0
  5 10  1  0  0  0
  5  9  1  0  0  0
  6 11  2  0  0  0
  7 12  1  0  0  0
  8 13  1  0  0  0
  8 14  1  0  0  0
  8 52  1  0  0  0
 10 15  2  0  0  0
 10 16  1  0  0  0
 11 15  1  0  0  0
 11 53  1  0  0  0
 12 17  1  0  0  0
 12 13  1  0  0  0
 12 54  1  0  0  0
 13 18  1  0  0  0
 13 55  1  0  0  0
 14 56  1  0  0  0
 16 57  1  0  0  0
 16 58  1  0  0  0
 17 19  1  0  0  0
 17 59  1  0  0  0
 17 60  1  0  0  0
 18 61  1  0  0  0
 19 20  1  0  0  0
 20 21  1  0  0  0
 20 22  2  0  0  0
 20 74  1  0  0  0
 21 23  1  0  0  0
 23 24  1  0  0  0
 23 25  2  0  0  0
 23 75  1  0  0  0
 24 26  1  0  0  0
 26 27  1  0  0  0
 26 28  2  0  0  0
 26 76  1  0  0  0
 27 29  1  0  0  0
 29 30  1  0  0  0
 29 31  2  0  0  0
 29 77  1  0  0  0
 30 32  1  0  0  0
 32 33  1  0  0  0
 32 62  1  0  0  0
 32 63  1  0  0  0
 33 34  1  0  0  0
 33 35  1  0  0  0
 33 64  1  0  0  0
 34 36  1  0  0  0
 35 37  1  0  0  0
 35 38  1  0  0  0
 35 65  1  0  0  0
 36 39  1  0  0  0
 36 37  1  0  0  0
 36 66  1  0  0  0
 37 40  1  0  0  0
 37 67  1  0  0  0
 38 68  1  0  0  0
 39 41  1  0  0  0
 39 42  1  0  0  0
 40 69  1  0  0  0
 41 43  2  0  0  0
 41 44  1  0  0  0
 42 45  2  0  0  0
 42 70  1  0  0  0
 43 46  1  0  0  0
 43 45  1  0  0  0
 44 47  2  0  0  0
 46 48  2  0  0  0
 46 49  1  0  0  0
 47 48  1  0  0  0
 47 71  1  0  0  0
 49 72  1  0  0  0
 49 73  1  0  0  0
M  CHG  4  74  -1  75  -1  76  -1  77  -1
M  END
> <i_ionizer_Ion_state_n>
30

> <i_ionizer_Tot_Q>
-4

> <s_ionizer_Ion_centers>
74_75_76_77

> <s_ionizer_Ion_types>
OM_OM_OM_OM

> <s_ionizer_Ion_ctrs_in>
22_26_30_34

> <r_ionizer_Ionization_penalty>
6.73071e-05

> <r_ionizer_Ionization_penalty_charging>
2.98356e-05

> <r_ionizer_Ionization_penalty_neutral>
3.74715e-05

> <s_st_Chirality_1>
3_R_7_1_8_50

> <s_st_Chirality_2>
8_R_14_3_13_52

> <s_st_Chirality_3>
12_R_7_13_17_54

> <s_st_Chirality_4>
13_R_18_8_12_55

> <s_st_Chirality_5>
33_R_34_35_32_64

> <s_st_Chirality_6>
35_R_38_37_33_65

> <s_st_Chirality_7>
36_R_34_39_37_66

> <s_st_Chirality_8>
37_R_40_36_35_67

> <i_mmod_Serial_Number-OPLS-2005>
433

> <i_i_glide_lignum>
429

> <r_i_docking_score>
-3.05364

> <r_i_glide_gscore>
-3.05364

> <r_i_glide_lipo>
-0.67132

> <r_i_glide_hbond>
-0.302991

> <r_i_glide_metal>
0

> <r_i_glide_eburp>
1.39862e-17

> <r_i_glide_evdw>
-41.3403

> <r_i_glide_ecoul>
2.11917

> <r_i_glide_erotb>
0.26528

> <r_i_glide_esite>
0.750696

> <r_i_glide_emodel>
-57.893

> <r_i_glide_energy>
-39.2211

> <r_i_glide_einternal>
7.36433

> <i_i_glide_confnum>
318

> <i_i_glide_posenum>
749

$$$$
C05488
                    3D
 Structure written by MMmdl.
 55 58  0  0  1  0            999 V2000
    2.4902    1.0693    2.2333 C   0  0  1  0  0  0
    1.6617    2.2735    2.7153 C   0  0  1  0  0  0
    4.0041    1.3260    2.2432 C   0  0  1  0  0  0
    2.3410   -0.2704    2.9560 C   0  0  0  0  0  0
    1.9679    3.4945    1.8025 C   0  0  1  0  0  0
    0.1600    1.9616    2.6851 C   0  0  0  0  0  0
    4.5408   -0.0766    1.8108 C   0  0  2  0  0  0
    4.2988    2.5010    1.2867 C   0  0  0  0  0  0
    4.5112    1.7005    3.6660 C   0  0  0  0  0  0
    3.5982   -1.0648    2.5505 C   0  0  0  0  0  0
    1.1434    4.7652    2.1856 C   0  0  2  0  0  0
    3.4951    3.7577    1.6826 C   0  0  0  0  0  0
   -0.6569    3.1706    3.1414 C   0  0  0  0  0  0
    6.0419   -0.3025    2.1071 C   0  0  0  0  0  0
    4.3128   -0.2647    0.4215 O   0  0  0  0  0  0
   -0.3486    4.4007    2.3052 C   0  0  0  0  0  0
    1.3538    5.8316    1.0776 C   0  0  0  0  0  0
    1.6109    5.3484    3.5350 C   0  0  0  0  0  0
    6.9674   -0.6171    0.9246 C   0  0  0  0  0  0
    6.4820   -0.2502    3.2573 O   0  0  0  0  0  0
   -1.3499    5.0988    1.7292 C   0  0  0  0  0  0
    0.2970    6.9422    1.0677 C   0  0  0  0  0  0
    6.7699    0.2969   -0.1364 O   0  0  0  0  0  0
   -1.1000    6.3376    0.9809 C   0  0  0  0  0  0
   -1.9691    6.9071    0.3244 O   0  0  0  0  0  0
    2.1890    0.8941    1.1996 H   0  0  0  0  0  0
    1.9344    2.5078    3.7433 H   0  0  0  0  0  0
    1.6368    3.2061    0.8038 H   0  0  0  0  0  0
    2.3246   -0.1202    4.0357 H   0  0  0  0  0  0
    1.4221   -0.7860    2.6766 H   0  0  0  0  0  0
   -0.1395    1.6766    1.6760 H   0  0  0  0  0  0
   -0.0604    1.1109    3.3300 H   0  0  0  0  0  0
    5.3650    2.7278    1.2816 H   0  0  0  0  0  0
    4.0348    2.2313    0.2642 H   0  0  0  0  0  0
    4.0112    2.5784    4.0712 H   0  0  0  0  0  0
    5.5777    1.9265    3.6555 H   0  0  0  0  0  0
    4.3590    0.8892    4.3777 H   0  0  0  0  0  0
    4.0602   -1.4835    3.4447 H   0  0  0  0  0  0
    3.3339   -1.9075    1.9106 H   0  0  0  0  0  0
    3.6828    4.5325    0.9401 H   0  0  0  0  0  0
    3.8812    4.1468    2.6234 H   0  0  0  0  0  0
   -1.7217    2.9420    3.0904 H   0  0  0  0  0  0
   -0.4335    3.3933    4.1848 H   0  0  0  0  0  0
    4.5524   -1.1507    0.1970 H   0  0  0  0  0  0
    1.3354    5.3434    0.1023 H   0  0  0  0  0  0
    2.3438    6.2788    1.1685 H   0  0  0  0  0  0
    0.9929    6.1973    3.8279 H   0  0  0  0  0  0
    1.5516    4.6120    4.3360 H   0  0  0  0  0  0
    2.6406    5.7013    3.4854 H   0  0  0  0  0  0
    8.0053   -0.5689    1.2542 H   0  0  0  0  0  0
    6.7794   -1.6294    0.5673 H   0  0  0  0  0  0
   -2.3766    4.7828    1.8429 H   0  0  0  0  0  0
    0.3653    7.5437    1.9741 H   0  0  0  0  0  0
    0.4593    7.6115    0.2226 H   0  0  0  0  0  0
    5.9307    0.1146   -0.5318 H   0  0  0  0  0  0
  1  2  1  0  0  0
  1  3  1  0  0  0
  1  4  1  0  0  0
  1 26  1  0  0  0
  2  5  1  0  0  0
  2  6  1  0  0  0
  2 27  1  0  0  0
  3  7  1  0  0  0
  3  8  1  0  0  0
  3  9  1  0  0  0
  4 10  1  0  0  0
  4 29  1  0  0  0
  4 30  1  0  0  0
  5 11  1  0  0  0
  5 12  1  0  0  0
  5 28  1  0  0  0
  6 13  1  0  0  0
  6 31  1  0  0  0
  6 32  1  0  0  0
  7 14  1  0  0  0
  7 15  1  0  0  0
  7 10  1  0  0  0
  8 12  1  0  0  0
  8 33  1  0  0  0
  8 34  1  0  0  0
  9 35  1  0  0  0
  9 36  1  0  0  0
  9 37  1  0  0  0
 10 38  1  0  0  0
 10 39  1  0  0  0
 11 16  1  0  0  0
 11 17  1  0  0  0
 11 18  1  0  0  0
 12 40  1  0  0  0
 12 41  1  0  0  0
 13 16  1  0  0  0
 13 42  1  0  0  0
 13 43  1  0  0  0
 14 19  1  0  0  0
 14 20  2  0  0  0
 15 44  1  0  0  0
 16 21  2  0  0  0
 17 22  1  0  0  0
 17 45  1  0  0  0
 17 46  1  0  0  0
 18 47  1  0  0  0
 18 48  1  0  0  0
 18 49  1  0  0  0
 19 23  1  0  0  0
 19 50  1  0  0  0
 19 51  1  0  0  0
 21 24  1  0  0  0
 21 52  1  0  0  0
 22 24  1  0  0  0
 22 53  1  0  0  0
 22 54  1  0  0  0
 23 55  1  0  0  0
 24 25  2  0  0  0
M  END
> <i_ionizer_Ion_state_n>
0

> <i_ionizer_Tot_Q>
0

> <s_ionizer_Ion_centers>


> <s_ionizer_Ion_types>


> <s_ionizer_Ion_ctrs_in>


> <r_ionizer_Ionization_penalty>
0

> <r_ionizer_Ionization_penalty_charging>
0

> <r_ionizer_Ionization_penalty_neutral>
0

> <s_st_Chirality_1>
1_S_3_2_4_26

> <s_st_Chirality_2>
2_R_1_5_6_27

> <s_st_Chirality_3>
3_S_7_1_8_9

> <s_st_Chirality_4>
5_S_11_2_12_28

> <s_st_Chirality_5>
7_R_15_14_3_10

> <s_st_Chirality_6>
11_R_16_5_17_18

> <s_st_EZ_1>
11_16_21_24_Z

> <i_mmod_Serial_Number-OPLS-2005>
725

> <i_i_glide_lignum>
717

> <r_i_docking_score>
-3.04973

> <r_i_glide_gscore>
-3.04973

> <r_i_glide_lipo>
-1.75974

> <r_i_glide_hbond>
0

> <r_i_glide_metal>
0

> <r_i_glide_eburp>
-1.1631

> <r_i_glide_evdw>
-0.642407

> <r_i_glide_ecoul>
1.12647

> <r_i_glide_erotb>
0.362016

> <r_i_glide_esite>
-0.550154

> <r_i_glide_emodel>
2.10355

> <r_i_glide_energy>
0.484061

> <r_i_glide_einternal>
2.00366

> <i_i_glide_confnum>
7

> <i_i_glide_posenum>
222

$$$$
C05936
                    3D
 Structure written by MMmdl.
 20 19  0  0  1  0            999 V2000
    3.3642    0.9638    3.3168 C   0  0  0  0  0  0
    4.2949    0.3615    4.2612 N   0  0  0  0  0  0
    1.9132    0.7029    3.7435 C   0  0  0  0  0  0
    5.1747    1.0529    4.9987 C   0  0  0  0  0  0
    0.9035    1.4772    2.8813 C   0  0  0  0  0  0
    6.0494    0.2399    5.9464 C   0  0  0  0  0  0
    5.2967    2.2758    4.9398 O   0  0  0  0  0  0
    0.9832    2.9831    3.1166 C   0  0  0  0  0  0
    0.1048    3.5666    3.7481 O   0  0  0  0  0  0
    3.5424    0.5524    2.3219 H   0  0  0  0  0  0
    3.5513    2.0374    3.2603 H   0  0  0  0  0  0
    4.2695   -0.6429    4.3610 H   0  0  0  0  0  0
    1.7051   -0.3666    3.6799 H   0  0  0  0  0  0
    1.7896    0.9814    4.7915 H   0  0  0  0  0  0
    1.0827    1.2808    1.8236 H   0  0  0  0  0  0
   -0.1118    1.1445    3.1000 H   0  0  0  0  0  0
    6.7287    0.8897    6.4992 H   0  0  0  0  0  0
    5.4330   -0.3000    6.6656 H   0  0  0  0  0  0
    6.6464   -0.4825    5.3892 H   0  0  0  0  0  0
    1.8526    3.4878    2.6947 H   0  0  0  0  0  0
  1  2  1  0  0  0
  1  3  1  0  0  0
  1 10  1  0  0  0
  1 11  1  0  0  0
  2  4  1  0  0  0
  2 12  1  0  0  0
  3  5  1  0  0  0
  3 13  1  0  0  0
  3 14  1  0  0  0
  4  6  1  0  0  0
  4  7  2  0  0  0
  5  8  1  0  0  0
  5 15  1  0  0  0
  5 16  1  0  0  0
  6 17  1  0  0  0
  6 18  1  0  0  0
  6 19  1  0  0  0
  8  9  2  0  0  0
  8 20  1  0  0  0
M  END
> <i_ionizer_Ion_state_n>
0

> <i_ionizer_Tot_Q>
0

> <s_ionizer_Ion_centers>


> <s_ionizer_Ion_types>


> <s_ionizer_Ion_ctrs_in>


> <r_ionizer_Ionization_penalty>
0

> <r_ionizer_Ionization_penalty_charging>
0

> <r_ionizer_Ionization_penalty_neutral>
0

> <i_mmod_Serial_Number-OPLS-2005>
831

> <i_i_glide_lignum>
819

> <r_i_docking_score>
-3.04516

> <r_i_glide_gscore>
-3.04516

> <r_i_glide_lipo>
-0.356052

> <r_i_glide_hbond>
-0.765664

> <r_i_glide_metal>
0

> <r_i_glide_eburp>
-2.5

> <r_i_glide_evdw>
-17.3168

> <r_i_glide_ecoul>
-5.13167

> <r_i_glide_erotb>
2.838

> <r_i_glide_esite>
-0.36293

> <r_i_glide_emodel>
-30.2636

> <r_i_glide_energy>
-22.4485

> <r_i_glide_einternal>
1.10765

> <i_i_glide_confnum>
10

> <i_i_glide_posenum>
3

$$$$
C06142
                    3D
 Structure written by MMmdl.
 15 14  0  0  1  0            999 V2000
    4.2796    1.2877    4.4669 C   0  0  0  0  0  0
    3.3019    0.1062    4.5431 C   0  0  0  0  0  0
    5.7016    0.9025    4.8959 C   0  0  0  0  0  0
    1.8710    0.5000    4.1597 C   0  0  0  0  0  0
    5.6997    0.5006    6.2488 O   0  0  0  0  0  0
    4.3007    1.6757    3.4475 H   0  0  0  0  0  0
    3.9172    2.0995    5.0991 H   0  0  0  0  0  0
    3.6424   -0.6937    3.8845 H   0  0  0  0  0  0
    3.3023   -0.3046    5.5534 H   0  0  0  0  0  0
    6.0812    0.0850    4.2822 H   0  0  0  0  0  0
    6.3821    1.7461    4.7761 H   0  0  0  0  0  0
    1.2016   -0.3581    4.2233 H   0  0  0  0  0  0
    1.4840    1.2735    4.8236 H   0  0  0  0  0  0
    1.8273    0.8808    3.1390 H   0  0  0  0  0  0
    5.3818   -0.3881    6.2994 H   0  0  0  0  0  0
  1  2  1  0  0  0
  1  3  1  0  0  0
  1  6  1  0  0  0
  1  7  1  0  0  0
  2  4  1  0  0  0
  2  8  1  0  0  0
  2  9  1  0  0  0
  3  5  1  0  0  0
  3 10  1  0  0  0
  3 11  1  0  0  0
  4 12  1  0  0  0
  4 13  1  0  0  0
  4 14  1  0  0  0
  5 15  1  0  0  0
M  END
> <i_ionizer_Ion_state_n>
0

> <i_ionizer_Tot_Q>
0

> <s_ionizer_Ion_centers>


> <s_ionizer_Ion_types>


> <s_ionizer_Ion_ctrs_in>


> <r_ionizer_Ionization_penalty>
0

> <r_ionizer_Ionization_penalty_charging>
0

> <r_ionizer_Ionization_penalty_neutral>
0

> <i_mmod_Serial_Number-OPLS-2005>
857

> <i_i_glide_lignum>
845

> <r_i_docking_score>
-3.03985

> <r_i_glide_gscore>
-3.03985

> <r_i_glide_lipo>
-0.362154

> <r_i_glide_hbond>
-0.68295

> <r_i_glide_metal>
0

> <r_i_glide_eburp>
-2.5

> <r_i_glide_evdw>
-11.0673

> <r_i_glide_ecoul>
-4.84431

> <r_i_glide_erotb>
2.16942

> <r_i_glide_esite>
-0.294349

> <r_i_glide_emodel>
-17.626

> <r_i_glide_energy>
-15.9116

> <r_i_glide_einternal>
1.47691

> <i_i_glide_confnum>
2

> <i_i_glide_posenum>
516

$$$$
C05487
                    3D
 Structure written by MMmdl.
 57 60  0  0  1  0            999 V2000
    2.6617    1.0501    2.9904 C   0  0  2  0  0  0
    1.6882    2.2474    3.0923 C   0  0  1  0  0  0
    3.1173    0.6068    1.5836 C   0  0  2  0  0  0
    2.3746   -0.2452    3.7572 C   0  0  0  0  0  0
    2.2605    3.4731    2.3187 C   0  0  2  0  0  0
    0.2113    1.9426    2.7816 C   0  0  0  0  0  0
    4.0895   -0.5759    1.9698 C   0  0  2  0  0  0
    3.7157    1.8541    0.8890 C   0  0  0  0  0  0
    1.9696    0.0572    0.6789 C   0  0  0  0  0  0
    3.3014   -1.2962    3.1046 C   0  0  0  0  0  0
    1.3576    4.7725    2.4735 C   0  0  2  0  0  0
    2.7436    3.0639    0.8930 C   0  0  0  0  0  0
   -0.6248    3.1942    2.7013 C   0  0  0  0  0  0
    5.5230   -0.1353    2.3936 C   0  0  0  0  0  0
    4.2529   -1.4883    0.8940 O   0  0  0  0  0  0
   -0.1465    4.4457    2.5868 C   0  0  0  0  0  0
    1.5993    5.8284    1.3315 C   0  0  0  0  0  0
    1.7773    5.4200    3.8222 C   0  0  0  0  0  0
    6.7091   -0.3033    1.4254 C   0  0  0  0  0  0
    5.7049    0.3680    3.5045 O   0  0  0  0  0  0
   -1.1365    5.6125    2.5949 C   0  0  0  0  0  0
    0.3827    6.6657    0.8891 C   0  0  0  0  0  0
    6.5255    0.4641    0.2515 O   0  0  0  0  0  0
   -0.5826    6.9338    2.0373 C   0  0  1  0  0  0
   -1.6530    7.7478    1.6056 O   0  0  0  0  0  0
    3.5488    1.4605    3.4700 H   0  0  0  0  0  0
    1.6911    2.5267    4.1465 H   0  0  0  0  0  0
    2.5709   -0.1299    4.8236 H   0  0  0  0  0  0
    1.3333   -0.5480    3.6461 H   0  0  0  0  0  0
    3.2044    3.7087    2.8131 H   0  0  0  0  0  0
    0.0536    1.4050    1.8560 H   0  0  0  0  0  0
   -0.2000    1.3122    3.5701 H   0  0  0  0  0  0
    4.6264    2.1799    1.3905 H   0  0  0  0  0  0
    4.0094    1.6102   -0.1325 H   0  0  0  0  0  0
    1.3680   -0.7023    1.1773 H   0  0  0  0  0  0
    1.2935    0.8247    0.3182 H   0  0  0  0  0  0
    2.3582   -0.3892   -0.2362 H   0  0  0  0  0  0
    3.9394   -1.7873    3.8390 H   0  0  0  0  0  0
    2.6802   -2.0913    2.6887 H   0  0  0  0  0  0
    1.8904    2.8996    0.2365 H   0  0  0  0  0  0
    3.3209    3.8719    0.4471 H   0  0  0  0  0  0
   -1.6925    3.0409    2.7636 H   0  0  0  0  0  0
    4.4704   -1.0003    0.1148 H   0  0  0  0  0  0
    2.4125    6.4961    1.6185 H   0  0  0  0  0  0
    1.9272    5.3781    0.4022 H   0  0  0  0  0  0
    1.2210    6.3225    4.0606 H   0  0  0  0  0  0
    1.6240    4.7396    4.6596 H   0  0  0  0  0  0
    2.8318    5.6985    3.8242 H   0  0  0  0  0  0
    7.6577   -0.0229    1.8768 H   0  0  0  0  0  0
    6.7842   -1.3529    1.1413 H   0  0  0  0  0  0
   -2.0067    5.3055    2.0120 H   0  0  0  0  0  0
   -1.4922    5.7696    3.6138 H   0  0  0  0  0  0
    0.7247    7.6015    0.4453 H   0  0  0  0  0  0
   -0.1514    6.1335    0.1000 H   0  0  0  0  0  0
    5.8037    0.1011   -0.2386 H   0  0  0  0  0  0
   -0.0674    7.4936    2.8159 H   0  0  0  0  0  0
   -1.3192    8.6127    1.4219 H   0  0  0  0  0  0
  1  2  1  0  0  0
  1  3  1  0  0  0
  1  4  1  0  0  0
  1 26  1  0  0  0
  2  5  1  0  0  0
  2  6  1  0  0  0
  2 27  1  0  0  0
  3  7  1  0  0  0
  3  8  1  0  0  0
  3  9  1  0  0  0
  4 10  1  0  0  0
  4 28  1  0  0  0
  4 29  1  0  0  0
  5 11  1  0  0  0
  5 12  1  0  0  0
  5 30  1  0  0  0
  6 13  1  0  0  0
  6 31  1  0  0  0
  6 32  1  0  0  0
  7 14  1  0  0  0
  7 15  1  0  0  0
  7 10  1  0  0  0
  8 12  1  0  0  0
  8 33  1  0  0  0
  8 34  1  0  0  0
  9 35  1  0  0  0
  9 36  1  0  0  0
  9 37  1  0  0  0
 10 38  1  0  0  0
 10 39  1  0  0  0
 11 16  1  0  0  0
 11 17  1  0  0  0
 11 18  1  0  0  0
 12 40  1  0  0  0
 12 41  1  0  0  0
 13 16  2  0  0  0
 13 42  1  0  0  0
 14 19  1  0  0  0
 14 20  2  0  0  0
 15 43  1  0  0  0
 16 21  1  0  0  0
 17 22  1  0  0  0
 17 44  1  0  0  0
 17 45  1  0  0  0
 18 46  1  0  0  0
 18 47  1  0  0  0
 18 48  1  0  0  0
 19 23  1  0  0  0
 19 49  1  0  0  0
 19 50  1  0  0  0
 21 24  1  0  0  0
 21 51  1  0  0  0
 21 52  1  0  0  0
 22 24  1  0  0  0
 22 53  1  0  0  0
 22 54  1  0  0  0
 23 55  1  0  0  0
 24 25  1  0  0  0
 24 56  1  0  0  0
 25 57  1  0  0  0
M  END
> <i_ionizer_Ion_state_n>
0

> <i_ionizer_Tot_Q>
0

> <s_ionizer_Ion_centers>


> <s_ionizer_Ion_types>


> <s_ionizer_Ion_ctrs_in>


> <r_ionizer_Ionization_penalty>
0

> <r_ionizer_Ionization_penalty_charging>
0

> <r_ionizer_Ionization_penalty_neutral>
0

> <s_st_Chirality_1>
7_R_15_14_3_10

> <s_st_Chirality_2>
1_R_3_2_4_26

> <s_st_Chirality_3>
2_R_1_5_6_27

> <s_st_Chirality_4>
3_R_7_1_8_9

> <s_st_Chirality_5>
5_R_11_2_12_30

> <s_st_Chirality_6>
11_R_16_5_17_18

> <s_st_Chirality_7>
24_R_25_21_22_56

> <s_st_EZ_1>
6_13_16_11_Z

> <i_mmod_Serial_Number-OPLS-2005>
724

> <i_i_glide_lignum>
716

> <r_i_docking_score>
-3.03791

> <r_i_glide_gscore>
-3.03791

> <r_i_glide_lipo>
-1.87068

> <r_i_glide_hbond>
0

> <r_i_glide_metal>
0

> <r_i_glide_eburp>
-1.14783

> <r_i_glide_evdw>
5.35114

> <r_i_glide_ecoul>
-2.7817

> <r_i_glide_erotb>
0.358304

> <r_i_glide_esite>
-0.52763

> <r_i_glide_emodel>
2.05085

> <r_i_glide_energy>
2.56943

> <r_i_glide_einternal>
1.7502

> <i_i_glide_confnum>
4

> <i_i_glide_posenum>
269

$$$$
C03415
                    3D
 Structure written by MMmdl.
 31 30  0  0  1  0            999 V2000
    0.7583    5.7144    2.5885 C   0  0  1  0  0  0
    1.2295    4.3703    2.2565 N   0  0  0  0  0  0
    1.0211    6.6290    1.3700 C   0  0  0  0  0  0
   -0.7518    5.6711    2.8811 C   0  0  0  0  0  0
    0.9591    3.2534    2.9498 C   0  0  0  0  0  0
    0.0540    6.4022    0.1931 C   0  0  0  0  0  0
   -1.3495    4.5862    2.7003 O   0  0  0  0  0  0
    1.6790    1.9826    2.4911 C   0  0  0  0  0  0
    0.1811    3.2216    3.9035 O   0  0  0  0  0  0
   -0.4530    7.7176   -0.4110 C   0  0  0  0  0  0
    1.3604    0.7625    3.3836 C   0  0  0  0  0  0
    1.0294   -0.5000    2.5784 C   0  0  0  0  0  0
    1.7700   -1.5016    2.6982 O   0  0  0  0  0  0
    1.2952    6.0986    3.4582 H   0  0  0  0  0  0
    1.7565    4.2771    1.4010 H   0  0  0  0  0  0
    0.9328    7.6682    1.6905 H   0  0  0  0  0  0
    2.0500    6.5117    1.0250 H   0  0  0  0  0  0
    0.5469    5.8207   -0.5870 H   0  0  0  0  0  0
   -0.7930    5.8051    0.5338 H   0  0  0  0  0  0
    1.3836    1.7829    1.4603 H   0  0  0  0  0  0
    2.7553    2.1641    2.4808 H   0  0  0  0  0  0
    0.3832    8.3193   -0.7690 H   0  0  0  0  0  0
   -1.0971    7.5174   -1.2680 H   0  0  0  0  0  0
    2.2085    0.5414    4.0330 H   0  0  0  0  0  0
    0.5120    0.9797    4.0338 H   0  0  0  0  0  0
   -1.5366    9.3574    0.1563 H   0  0  0  0  0  0
   -2.0052    7.9597    0.8960 H   0  0  0  0  0  0
   -1.2866    6.7386    3.2522 O   0  5  0  0  0  0
   -1.2123    8.4993    0.5790 N   0  3  0  0  0  0
   -0.6174    8.7152    1.3662 H   0  0  0  0  0  0
    0.0206   -0.4370    1.8427 O   0  5  0  0  0  0
  1  2  1  0  0  0
  1  3  1  0  0  0
  1  4  1  0  0  0
  1 14  1  0  0  0
  2  5  1  0  0  0
  2 15  1  0  0  0
  3  6  1  0  0  0
  3 16  1  0  0  0
  3 17  1  0  0  0
  4  7  2  0  0  0
  4 28  1  0  0  0
  5  8  1  0  0  0
  5  9  2  0  0  0
  6 10  1  0  0  0
  6 18  1  0  0  0
  6 19  1  0  0  0
  8 11  1  0  0  0
  8 20  1  0  0  0
  8 21  1  0  0  0
 10 22  1  0  0  0
 10 23  1  0  0  0
 10 29  1  0  0  0
 11 12  1  0  0  0
 11 24  1  0  0  0
 11 25  1  0  0  0
 12 13  2  0  0  0
 12 31  1  0  0  0
 26 29  1  0  0  0
 27 29  1  0  0  0
 29 30  1  0  0  0
M  CHG  3  28  -1  29   1  31  -1
M  END
> <i_ionizer_Ion_state_n>
7

> <i_ionizer_Tot_Q>
-1

> <s_ionizer_Ion_centers>
28_29_31

> <s_ionizer_Ion_types>
OM_N5_OM

> <s_ionizer_Ion_ctrs_in>
7_13_15

> <r_ionizer_Ionization_penalty>
0.00137171

> <r_ionizer_Ionization_penalty_charging>
0.00137171

> <r_ionizer_Ionization_penalty_neutral>
0

> <s_st_Chirality_1>
1_S_2_4_3_14

> <i_mmod_Serial_Number-OPLS-2005>
542

> <i_i_glide_lignum>
536

> <r_i_docking_score>
-3.03324

> <r_i_glide_gscore>
-3.03324

> <r_i_glide_lipo>
-0.514509

> <r_i_glide_hbond>
-2.08845

> <r_i_glide_metal>
0

> <r_i_glide_eburp>
-1.94768

> <r_i_glide_evdw>
-16.873

> <r_i_glide_ecoul>
-15.6021

> <r_i_glide_erotb>
4.38697

> <r_i_glide_esite>
0.0404849

> <r_i_glide_emodel>
-88.1544

> <r_i_glide_energy>
-32.475

> <r_i_glide_einternal>
11.044

> <i_i_glide_confnum>
68

> <i_i_glide_posenum>
188

$$$$
C00022
                    3D
 Structure written by MMmdl.
  9  8  0  0  1  0            999 V2000
    1.3163    1.6946    3.0371 C   0  0  0  0  0  0
    0.7371    3.1107    3.2402 C   0  0  0  0  0  0
    1.4739    0.8214    4.2800 C   0  0  0  0  0  0
    1.6441    1.2665    1.9298 O   0  0  0  0  0  0
    0.9613    3.9362    2.3265 O   0  0  0  0  0  0
    1.8898   -0.1506    4.0149 H   0  0  0  0  0  0
    2.1419    1.2998    4.9964 H   0  0  0  0  0  0
    0.5066    0.6652    4.7578 H   0  0  0  0  0  0
    0.0984    3.2967    4.3002 O   0  5  0  0  0  0
  1  2  1  0  0  0
  1  3  1  0  0  0
  1  4  2  0  0  0
  2  5  2  0  0  0
  2  9  1  0  0  0
  3  6  1  0  0  0
  3  7  1  0  0  0
  3  8  1  0  0  0
M  CHG  1   9  -1
M  END
> <i_ionizer_Ion_state_n>
1

> <i_ionizer_Tot_Q>
-1

> <s_ionizer_Ion_centers>
9

> <s_ionizer_Ion_types>
OM

> <s_ionizer_Ion_ctrs_in>
5

> <r_ionizer_Ionization_penalty>
0.00059219

> <r_ionizer_Ionization_penalty_charging>
0.00059219

> <r_ionizer_Ionization_penalty_neutral>
0

> <i_mmod_Serial_Number-OPLS-2005>
18

> <i_i_glide_lignum>
18

> <r_i_docking_score>
-3.03252

> <r_i_glide_gscore>
-3.03252

> <r_i_glide_lipo>
-0.102783

> <r_i_glide_hbond>
-0.7

> <r_i_glide_metal>
0

> <r_i_glide_eburp>
-2.5

> <r_i_glide_evdw>
-9.36249

> <r_i_glide_ecoul>
-3.76472

> <r_i_glide_erotb>
1.71946

> <r_i_glide_esite>
-0.323724

> <r_i_glide_emodel>
-29.261

> <r_i_glide_energy>
-13.1272

> <r_i_glide_einternal>
0.293536

> <i_i_glide_confnum>
2

> <i_i_glide_posenum>
983

$$$$
C00581
                    3D
 Structure written by MMmdl.
 15 14  0  0  1  0            999 V2000
    0.8096    3.3454    3.4434 C   0  0  0  0  0  0
    1.0427    1.8424    3.2977 C   0  0  0  0  0  0
    1.7361    4.1137    3.0992 O   0  0  0  0  0  0
    2.4418    1.4413    3.4936 N   0  0  0  0  0  0
    2.8727    0.3599    4.1613 C   0  0  0  0  0  0
    1.9771   -0.4762    4.6994 N   0  0  0  0  0  0
    0.4180    1.3192    4.0220 H   0  0  0  0  0  0
    0.7198    1.5325    2.3035 H   0  0  0  0  0  0
    3.1131    2.0669    3.0689 H   0  0  0  0  0  0
    2.2785   -1.2957    5.2058 H   0  0  0  0  0  0
    0.9892   -0.2901    4.6009 H   0  0  0  0  0  0
    4.4921   -0.7171    4.8049 H   0  0  0  0  0  0
   -0.2986    3.6995    3.8994 O   0  5  0  0  0  0
    4.1804    0.0997    4.3004 N   0  3  0  0  0  0
    4.8630    0.7252    3.8975 H   0  0  0  0  0  0
  1  2  1  0  0  0
  1  3  2  0  0  0
  1 13  1  0  0  0
  2  4  1  0  0  0
  2  7  1  0  0  0
  2  8  1  0  0  0
  4  5  1  0  0  0
  4  9  1  0  0  0
  5  6  1  0  0  0
  5 14  2  0  0  0
  6 10  1  0  0  0
  6 11  1  0  0  0
 12 14  1  0  0  0
 14 15  1  0  0  0
M  CHG  2  13  -1  14   1
M  END
> <i_ionizer_Ion_state_n>
3

> <i_ionizer_Tot_Q>
0

> <s_ionizer_Ion_centers>
13_14

> <s_ionizer_Ion_types>
OM_N4

> <s_ionizer_Ion_ctrs_in>
3_8

> <r_ionizer_Ionization_penalty>
0.000594063

> <r_ionizer_Ionization_penalty_charging>
0.000594063

> <r_ionizer_Ionization_penalty_neutral>
0

> <i_mmod_Serial_Number-OPLS-2005>
285

> <i_i_glide_lignum>
283

> <r_i_docking_score>
-3.0262

> <r_i_glide_gscore>
-3.0262

> <r_i_glide_lipo>
-0.195483

> <r_i_glide_hbond>
-1.2

> <r_i_glide_metal>
0

> <r_i_glide_eburp>
-2.5

> <r_i_glide_evdw>
-7.49534

> <r_i_glide_ecoul>
-9.43702

> <r_i_glide_erotb>
2.20255

> <r_i_glide_esite>
0.210064

> <r_i_glide_emodel>
-44.2522

> <r_i_glide_energy>
-16.9324

> <r_i_glide_einternal>
0.356016

> <i_i_glide_confnum>
6

> <i_i_glide_posenum>
134

$$$$
C02888
                    3D
 Structure written by MMmdl.
 27 26  0  0  1  0            999 V2000
    2.5006    0.3222    4.2281 C   0  0  1  0  0  0
    3.2477   -0.4846    3.1255 C   0  0  1  0  0  0
    2.0844    1.7474    3.8124 C   0  0  0  0  0  0
    1.3723   -0.4118    4.6711 O   0  0  0  0  0  0
    2.5647   -0.5705    1.7309 C   0  0  2  0  0  0
    4.5236    0.1000    2.9420 O   0  0  0  0  0  0
    0.5950    2.0892    3.8760 C   0  0  0  0  0  0
    2.9168    2.5842    3.4574 O   0  0  0  0  0  0
    2.8050    0.6321    0.7938 C   0  0  0  0  0  0
    1.1639   -0.7016    1.9000 O   0  0  0  0  0  0
    0.4253    3.4298    4.3001 O   0  0  0  0  0  0
    4.1578    0.7180    0.3885 O   0  0  0  0  0  0
   -0.0462    4.5559    2.9947 P   0  0  0  0  0  0
    0.0995    5.9290    3.6884 O   0  0  0  0  0  0
    3.1504    0.4125    5.0998 H   0  0  0  0  0  0
    3.4266   -1.4953    3.4955 H   0  0  0  0  0  0
    1.6668   -1.1076    5.2382 H   0  0  0  0  0  0
    2.9000   -1.4723    1.2167 H   0  0  0  0  0  0
    5.0167   -0.0180    3.7407 H   0  0  0  0  0  0
    0.1447    1.9440    2.8940 H   0  0  0  0  0  0
    0.1006    1.4171    4.5769 H   0  0  0  0  0  0
    2.1802    0.5552   -0.0954 H   0  0  0  0  0  0
    2.5220    1.5638    1.2851 H   0  0  0  0  0  0
    0.8413    0.0724    2.3352 H   0  0  0  0  0  0
    4.3251    0.0384   -0.2462 H   0  0  0  0  0  0
    0.9988    4.2339    1.9030 O   0  5  0  0  0  0
   -1.4919    4.0995    2.7000 O   0  5  0  0  0  0
  1  2  1  0  0  0
  1  3  1  0  0  0
  1  4  1  0  0  0
  1 15  1  0  0  0
  2  5  1  0  0  0
  2  6  1  0  0  0
  2 16  1  0  0  0
  3  7  1  0  0  0
  3  8  2  0  0  0
  4 17  1  0  0  0
  5  9  1  0  0  0
  5 10  1  0  0  0
  5 18  1  0  0  0
  6 19  1  0  0  0
  7 11  1  0  0  0
  7 20  1  0  0  0
  7 21  1  0  0  0
  9 12  1  0  0  0
  9 22  1  0  0  0
  9 23  1  0  0  0
 10 24  1  0  0  0
 11 13  1  0  0  0
 12 25  1  0  0  0
 13 14  2  0  0  0
 13 26  1  0  0  0
 13 27  1  0  0  0
M  CHG  2  26  -1  27  -1
M  END
> <i_ionizer_Ion_state_n>
3

> <i_ionizer_Tot_Q>
-2

> <s_ionizer_Ion_centers>
26_27

> <s_ionizer_Ion_types>
OM_OM

> <s_ionizer_Ion_ctrs_in>
14_15

> <r_ionizer_Ionization_penalty>
1.49178e-05

> <r_ionizer_Ionization_penalty_charging>
1.49178e-05

> <r_ionizer_Ionization_penalty_neutral>
0

> <s_st_Chirality_1>
1_S_4_3_2_15

> <s_st_Chirality_2>
2_R_6_1_5_16

> <s_st_Chirality_3>
5_S_10_2_9_18

> <i_mmod_Serial_Number-OPLS-2005>
513

> <i_i_glide_lignum>
507

> <r_i_docking_score>
-3.00166

> <r_i_glide_gscore>
-3.00166

> <r_i_glide_lipo>
-0.465505

> <r_i_glide_hbond>
-1.21995

> <r_i_glide_metal>
0

> <r_i_glide_eburp>
-2.2324

> <r_i_glide_evdw>
-20.4368

> <r_i_glide_ecoul>
-11.1161

> <r_i_glide_erotb>
3.6348

> <r_i_glide_esite>
0.0279494

> <r_i_glide_emodel>
-60.3691

> <r_i_glide_energy>
-31.5529

> <r_i_glide_einternal>
7.90379

> <i_i_glide_confnum>
26

> <i_i_glide_posenum>
435

$$$$
C03205
                    3D
 Structure written by MMmdl.
 54 57  0  0  1  0            999 V2000
    0.8111    5.3429    1.3885 C   0  0  1  0  0  0
    1.8923    4.3794    1.9078 C   0  0  1  0  0  0
   -0.3777    5.4829    2.3450 C   0  0  1  0  0  0
    1.1936    6.7861    1.0539 C   0  0  0  0  0  0
    1.2557    2.9753    2.1105 C   0  0  1  0  0  0
    3.0707    4.2831    0.9304 C   0  0  0  0  0  0
   -1.2035    6.5337    1.5688 C   0  0  2  0  0  0
   -1.0436    4.1019    2.4716 C   0  0  0  0  0  0
    0.0389    6.0019    3.7474 C   0  0  0  0  0  0
   -0.1574    7.5231    0.9999 C   0  0  0  0  0  0
    2.2812    1.9058    2.6054 C   0  0  2  0  0  0
   -0.0361    3.0455    2.9725 C   0  0  0  0  0  0
    4.1252    3.3023    1.4442 C   0  0  0  0  0  0
   -2.3856    7.1569    2.3316 C   0  0  0  0  0  0
    3.5312    1.9287    1.7052 C   0  0  0  0  0  0
    1.5961    0.5144    2.5468 C   0  0  0  0  0  0
    2.7223    2.1846    4.0570 C   0  0  0  0  0  0
   -2.1591    8.4535    3.1187 C   0  0  0  0  0  0
   -3.4905    6.6147    2.3010 O   0  0  0  0  0  0
    4.0995    0.8294    1.1664 C   0  0  0  0  0  0
    2.5732   -0.6668    2.5736 C   0  0  0  0  0  0
   -3.3872    9.0204    3.5295 O   0  0  0  0  0  0
    3.6039   -0.5217    1.4594 C   0  0  0  0  0  0
    4.0054   -1.5221    0.8689 O   0  0  0  0  0  0
    0.4327    4.9098    0.4607 H   0  0  0  0  0  0
    2.2723    4.7495    2.8592 H   0  0  0  0  0  0
    0.9335    2.6526    1.1193 H   0  0  0  0  0  0
    1.8214    7.2057    1.8402 H   0  0  0  0  0  0
    1.7399    6.8595    0.1134 H   0  0  0  0  0  0
    2.7151    3.9597   -0.0484 H   0  0  0  0  0  0
    3.5250    5.2641    0.7912 H   0  0  0  0  0  0
   -1.6422    6.0233    0.7102 H   0  0  0  0  0  0
   -1.8992    4.1536    3.1454 H   0  0  0  0  0  0
   -1.4322    3.7921    1.5010 H   0  0  0  0  0  0
    0.5114    6.9821    3.6927 H   0  0  0  0  0  0
    0.7439    5.3353    4.2415 H   0  0  0  0  0  0
   -0.8258    6.0907    4.4054 H   0  0  0  0  0  0
   -0.0931    8.4524    1.5645 H   0  0  0  0  0  0
   -0.4113    7.7831   -0.0279 H   0  0  0  0  0  0
   -0.5313    2.0751    2.9828 H   0  0  0  0  0  0
    0.2194    3.2620    4.0086 H   0  0  0  0  0  0
    4.9433    3.2251    0.7276 H   0  0  0  0  0  0
    4.5558    3.6779    2.3725 H   0  0  0  0  0  0
    0.8842    0.4104    3.3657 H   0  0  0  0  0  0
    1.0091    0.4423    1.6302 H   0  0  0  0  0  0
    3.4833    1.4725    4.3768 H   0  0  0  0  0  0
    3.1453    3.1828    4.1663 H   0  0  0  0  0  0
    1.8888    2.1001    4.7538 H   0  0  0  0  0  0
   -1.5444    8.2598    3.9969 H   0  0  0  0  0  0
   -1.6267    9.1685    2.4914 H   0  0  0  0  0  0
    4.9704    0.9152    0.5331 H   0  0  0  0  0  0
    3.0926   -0.7123    3.5308 H   0  0  0  0  0  0
    2.0340   -1.6067    2.4533 H   0  0  0  0  0  0
   -3.7172    9.5561    2.8238 H   0  0  0  0  0  0
  1  2  1  0  0  0
  1  3  1  0  0  0
  1  4  1  0  0  0
  1 25  1  0  0  0
  2  5  1  0  0  0
  2  6  1  0  0  0
  2 26  1  0  0  0
  3  7  1  0  0  0
  3  8  1  0  0  0
  3  9  1  0  0  0
  4 10  1  0  0  0
  4 28  1  0  0  0
  4 29  1  0  0  0
  5 11  1  0  0  0
  5 12  1  0  0  0
  5 27  1  0  0  0
  6 13  1  0  0  0
  6 30  1  0  0  0
  6 31  1  0  0  0
  7 14  1  0  0  0
  7 10  1  0  0  0
  7 32  1  0  0  0
  8 12  1  0  0  0
  8 33  1  0  0  0
  8 34  1  0  0  0
  9 35  1  0  0  0
  9 36  1  0  0  0
  9 37  1  0  0  0
 10 38  1  0  0  0
 10 39  1  0  0  0
 11 15  1  0  0  0
 11 16  1  0  0  0
 11 17  1  0  0  0
 12 40  1  0  0  0
 12 41  1  0  0  0
 13 15  1  0  0  0
 13 42  1  0  0  0
 13 43  1  0  0  0
 14 18  1  0  0  0
 14 19  2  0  0  0
 15 20  2  0  0  0
 16 21  1  0  0  0
 16 44  1  0  0  0
 16 45  1  0  0  0
 17 46  1  0  0  0
 17 47  1  0  0  0
 17 48  1  0  0  0
 18 22  1  0  0  0
 18 49  1  0  0  0
 18 50  1  0  0  0
 20 23  1  0  0  0
 20 51  1  0  0  0
 21 23  1  0  0  0
 21 52  1  0  0  0
 21 53  1  0  0  0
 22 54  1  0  0  0
 23 24  2  0  0  0
M  END
> <i_ionizer_Ion_state_n>
0

> <i_ionizer_Tot_Q>
0

> <s_ionizer_Ion_centers>


> <s_ionizer_Ion_types>


> <s_ionizer_Ion_ctrs_in>


> <r_ionizer_Ionization_penalty>
0

> <r_ionizer_Ionization_penalty_charging>
0

> <r_ionizer_Ionization_penalty_neutral>
0

> <s_st_Chirality_1>
1_S_3_2_4_25

> <s_st_Chirality_2>
2_S_5_1_6_26

> <s_st_Chirality_3>
3_R_1_7_8_9

> <s_st_Chirality_4>
5_S_11_2_12_27

> <s_st_Chirality_5>
7_S_14_3_10_32

> <s_st_Chirality_6>
11_R_15_5_16_17

> <s_st_EZ_1>
11_15_20_23_Z

> <i_mmod_Serial_Number-OPLS-2005>
527

> <i_i_glide_lignum>
521

> <r_i_docking_score>
-2.96864

> <r_i_glide_gscore>
-2.96864

> <r_i_glide_lipo>
-1.67163

> <r_i_glide_hbond>
-0.5

> <r_i_glide_metal>
0

> <r_i_glide_eburp>
-1.28431

> <r_i_glide_evdw>
9.07105

> <r_i_glide_ecoul>
-4.66946

> <r_i_glide_erotb>
0.39365

> <r_i_glide_esite>
-0.165082

> <r_i_glide_emodel>
-2.68491

> <r_i_glide_energy>
4.40159

> <r_i_glide_einternal>
5.23347

> <i_i_glide_confnum>
8

> <i_i_glide_posenum>
46

$$$$
C06197
                    3D
 Structure written by MMmdl.
 73 78  0  0  1  0            999 V2000
   -3.0079   15.4569    3.1509 N   0  0  0  0  0  0
   -1.7316   15.1331    3.5548 C   0  0  0  0  0  0
   -4.2527   15.2671    3.9595 C   0  0  2  0  0  0
   -2.8586   15.9755    1.8799 C   0  0  0  0  0  0
   -0.8832   15.4607    2.4628 C   0  0  0  0  0  0
   -1.3334   14.6004    4.7473 N   0  0  0  0  0  0
   -4.0395   14.1907    4.8265 O   0  0  0  0  0  0
   -5.4227   14.9046    3.0379 C   0  0  1  0  0  0
   -1.6336   15.9962    1.4248 N   0  0  0  0  0  0
    0.4959   15.1933    2.6537 C   0  0  0  0  0  0
   -0.0115   14.4099    4.7821 C   0  0  0  0  0  0
   -4.9336   13.1150    4.5419 C   0  0  1  0  0  0
   -5.4058   13.3865    3.1162 C   0  0  1  0  0  0
   -6.6294   15.4849    3.5024 O   0  0  0  0  0  0
    0.8968   14.6663    3.8345 N   0  0  0  0  0  0
    1.4258   15.4492    1.7244 N   0  0  0  0  0  0
   -4.1892   11.7850    4.7132 C   0  0  0  0  0  0
   -6.6489   12.7862    2.8068 O   0  0  0  0  0  0
   -5.0538   10.6947    4.4646 O   0  0  0  0  0  0
   -5.4681    9.6013    5.7020 P   0  0  0  0  0  0
   -4.1795    9.6356    6.8122 O   0  0  0  0  0  0
   -5.5116    8.2483    5.1034 O   0  0  0  0  0  0
   -2.4824    9.7106    6.7322 P   0  0  0  0  0  0
   -2.0448    8.4918    5.6357 O   0  0  0  0  0  0
   -2.0880   11.0089    6.1371 O   0  0  0  0  0  0
   -2.1915    8.3103    3.9555 P   0  0  0  0  0  0
   -0.8072    7.4076    3.5453 O   0  0  0  0  0  0
   -3.3879    7.4872    3.6751 O   0  0  0  0  0  0
   -0.6595    6.8225    2.2659 C   0  0  0  0  0  0
    0.8135    6.4895    1.9790 C   0  0  1  0  0  0
    1.3802    5.7069    3.0272 O   0  0  0  0  0  0
    1.0040    5.6340    0.7253 C   0  0  2  0  0  0
    2.2402    4.7265    2.5296 C   0  0  2  0  0  0
    2.3089    4.9031    1.0075 C   0  0  2  0  0  0
    1.0426    6.3916   -0.4699 O   0  0  0  0  0  0
    1.6475    3.3934    2.8537 N   0  0  0  0  0  0
    3.4619    5.6336    0.6284 O   0  0  0  0  0  0
    2.3361    2.3094    3.3510 C   0  0  0  0  0  0
    0.3371    2.9713    2.7559 C   0  0  0  0  0  0
    1.3726    1.2777    3.5111 C   0  0  0  0  0  0
    3.6684    2.2142    3.6336 N   0  0  0  0  0  0
    0.1222    1.7380    3.1274 N   0  0  0  0  0  0
    1.8656    0.0454    4.0066 C   0  0  0  0  0  0
    3.9839    0.9999    4.0945 C   0  0  0  0  0  0
    3.1855   -0.0557    4.2895 N   0  0  0  0  0  0
    1.0875   -1.0267    4.2051 N   0  0  0  0  0  0
   -4.3793   16.2022    4.5064 H   0  0  0  0  0  0
   -3.6873   16.3334    1.2872 H   0  0  0  0  0  0
   -5.2442   15.2582    2.0208 H   0  0  0  0  0  0
    0.3755   13.9911    5.6994 H   0  0  0  0  0  0
   -5.7769   13.1779    5.2315 H   0  0  0  0  0  0
   -4.6542   13.0156    2.4263 H   0  0  0  0  0  0
   -6.7986   15.1651    4.3750 H   0  0  0  0  0  0
    2.3961   15.2438    1.9107 H   0  0  0  0  0  0
    1.1488   15.8606    0.8446 H   0  0  0  0  0  0
   -3.3446   11.7347    4.0303 H   0  0  0  0  0  0
   -3.7856   11.7070    5.7229 H   0  0  0  0  0  0
   -7.3321   13.3278    3.1769 H   0  0  0  0  0  0
   -1.2851    5.9330    2.1822 H   0  0  0  0  0  0
   -1.0296    7.5364    1.5299 H   0  0  0  0  0  0
    1.4003    7.4055    1.8935 H   0  0  0  0  0  0
    0.1994    4.9001    0.6559 H   0  0  0  0  0  0
    3.2054    4.7260    3.0378 H   0  0  0  0  0  0
    2.3468    3.9376    0.5011 H   0  0  0  0  0  0
    1.2766    7.2807   -0.2524 H   0  0  0  0  0  0
    3.7678    5.3020   -0.2020 H   0  0  0  0  0  0
   -0.4640    3.6021    2.3994 H   0  0  0  0  0  0
    5.0246    0.8498    4.3415 H   0  0  0  0  0  0
    1.4879   -1.8797    4.5661 H   0  0  0  0  0  0
    0.1026   -0.9792    3.9783 H   0  0  0  0  0  0
   -6.6760   10.1229    6.3813 O   0  5  0  0  0  0
   -1.9427    9.3446    8.0626 O   0  5  0  0  0  0
   -2.0777    9.6564    3.3501 O   0  5  0  0  0  0
  1  2  1  0  0  0
  1  3  1  0  0  0
  1  4  1  0  0  0
  2  5  2  0  0  0
  2  6  1  0  0  0
  3  7  1  0  0  0
  3  8  1  0  0  0
  3 47  1  0  0  0
  4  9  2  0  0  0
  4 48  1  0  0  0
  5 10  1  0  0  0
  5  9  1  0  0  0
  6 11  2  0  0  0
  7 12  1  0  0  0
  8 13  1  0  0  0
  8 14  1  0  0  0
  8 49  1  0  0  0
 10 15  2  0  0  0
 10 16  1  0  0  0
 11 15  1  0  0  0
 11 50  1  0  0  0
 12 17  1  0  0  0
 12 13  1  0  0  0
 12 51  1  0  0  0
 13 18  1  0  0  0
 13 52  1  0  0  0
 14 53  1  0  0  0
 16 54  1  0  0  0
 16 55  1  0  0  0
 17 19  1  0  0  0
 17 56  1  0  0  0
 17 57  1  0  0  0
 18 58  1  0  0  0
 19 20  1  0  0  0
 20 21  1  0  0  0
 20 22  2  0  0  0
 20 71  1  0  0  0
 21 23  1  0  0  0
 23 24  1  0  0  0
 23 25  2  0  0  0
 23 72  1  0  0  0
 24 26  1  0  0  0
 26 27  1  0  0  0
 26 28  2  0  0  0
 26 73  1  0  0  0
 27 29  1  0  0  0
 29 30  1  0  0  0
 29 59  1  0  0  0
 29 60  1  0  0  0
 30 31  1  0  0  0
 30 32  1  0  0  0
 30 61  1  0  0  0
 31 33  1  0  0  0
 32 34  1  0  0  0
 32 35  1  0  0  0
 32 62  1  0  0  0
 33 36  1  0  0  0
 33 34  1  0  0  0
 33 63  1  0  0  0
 34 37  1  0  0  0
 34 64  1  0  0  0
 35 65  1  0  0  0
 36 38  1  0  0  0
 36 39  1  0  0  0
 37 66  1  0  0  0
 38 40  2  0  0  0
 38 41  1  0  0  0
 39 42  2  0  0  0
 39 67  1  0  0  0
 40 43  1  0  0  0
 40 42  1  0  0  0
 41 44  2  0  0  0
 43 45  2  0  0  0
 43 46  1  0  0  0
 44 45  1  0  0  0
 44 68  1  0  0  0
 46 69  1  0  0  0
 46 70  1  0  0  0
M  CHG  3  71  -1  72  -1  73  -1
M  END
> <i_ionizer_Ion_state_n>
14

> <i_ionizer_Tot_Q>
-3

> <s_ionizer_Ion_centers>
71_72_73

> <s_ionizer_Ion_types>
OM_OM_OM

> <s_ionizer_Ion_ctrs_in>
22_26_30

> <r_ionizer_Ionization_penalty>
5.98482e-05

> <r_ionizer_Ionization_penalty_charging>
2.23767e-05

> <r_ionizer_Ionization_penalty_neutral>
3.74715e-05

> <s_st_Chirality_1>
3_R_7_1_8_47

> <s_st_Chirality_2>
8_R_14_3_13_49

> <s_st_Chirality_3>
12_R_7_13_17_51

> <s_st_Chirality_4>
13_R_18_8_12_52

> <s_st_Chirality_5>
30_R_31_32_29_61

> <s_st_Chirality_6>
32_R_35_34_30_62

> <s_st_Chirality_7>
33_R_31_36_34_63

> <s_st_Chirality_8>
34_R_37_33_32_64

> <i_mmod_Serial_Number-OPLS-2005>
864

> <i_i_glide_lignum>
852

> <r_i_docking_score>
-2.96578

> <r_i_glide_gscore>
-2.96578

> <r_i_glide_lipo>
-0.678315

> <r_i_glide_hbond>
-0.519659

> <r_i_glide_metal>
0

> <r_i_glide_eburp>
4.21755e-17

> <r_i_glide_evdw>
-28.2744

> <r_i_glide_ecoul>
7.98274

> <r_i_glide_erotb>
0.301894

> <r_i_glide_esite>
-0.606024

> <r_i_glide_emodel>
-27.4428

> <r_i_glide_energy>
-20.2917

> <r_i_glide_einternal>
15.2564

> <i_i_glide_confnum>
310

> <i_i_glide_posenum>
376

$$$$
C01380
                    3D
 Structure written by MMmdl.
 10  9  0  0  1  0            999 V2000
    6.1682    0.6218    5.4727 C   0  0  0  0  0  0
    4.9870    0.9038    4.5365 C   0  0  0  0  0  0
    5.6938    0.0999    6.6953 O   0  0  0  0  0  0
    4.5878   -0.2906    3.8991 O   0  0  0  0  0  0
    6.8548   -0.0954    5.0216 H   0  0  0  0  0  0
    6.7305    1.5353    5.6695 H   0  0  0  0  0  0
    4.1420    1.3099    5.0937 H   0  0  0  0  0  0
    5.2629    1.6374    3.7781 H   0  0  0  0  0  0
    5.3238   -0.7548    6.5344 H   0  0  0  0  0  0
    4.5034   -0.9674    4.5535 H   0  0  0  0  0  0
  1  2  1  0  0  0
  1  3  1  0  0  0
  1  5  1  0  0  0
  1  6  1  0  0  0
  2  4  1  0  0  0
  2  7  1  0  0  0
  2  8  1  0  0  0
  3  9  1  0  0  0
  4 10  1  0  0  0
M  END
> <i_ionizer_Ion_state_n>
0

> <i_ionizer_Tot_Q>
0

> <s_ionizer_Ion_centers>


> <s_ionizer_Ion_types>


> <s_ionizer_Ion_ctrs_in>


> <r_ionizer_Ionization_penalty>
0

> <r_ionizer_Ionization_penalty_charging>
0

> <r_ionizer_Ionization_penalty_neutral>
0

> <i_mmod_Serial_Number-OPLS-2005>
444

> <i_i_glide_lignum>
440

> <r_i_docking_score>
-2.94666

> <r_i_glide_gscore>
-2.94666

> <r_i_glide_lipo>
-0.196149

> <r_i_glide_hbond>
-1.35

> <r_i_glide_metal>
0

> <r_i_glide_eburp>
-2.5

> <r_i_glide_evdw>
-4.31905

> <r_i_glide_ecoul>
-12.1676

> <r_i_glide_erotb>
2.78345

> <r_i_glide_esite>
-0.121681

> <r_i_glide_emodel>
-16.6533

> <r_i_glide_energy>
-16.4867

> <r_i_glide_einternal>
6.74827

> <i_i_glide_confnum>
2

> <i_i_glide_posenum>
614

$$$$
C03028
                    3D
 Structure written by MMmdl.
 46 47  0  0  1  0            999 V2000
   -1.0176    7.4665    2.2286 N   0  3  0  0  0  0
   -2.0604    8.5010    2.1343 C   0  0  0  0  0  0
   -0.2128    7.0324    1.1670 C   0  0  0  0  0  0
   -0.7639    6.8782    3.4060 C   0  0  0  0  0  0
   -2.5573    8.9677    3.4967 C   0  0  0  0  0  0
    0.6446    6.0332    1.5780 C   0  0  0  0  0  0
   -0.2634    7.5388   -0.2461 C   0  0  0  0  0  0
    0.4892    5.6997    3.2786 S   0  0  0  0  0  0
   -2.1480   10.1781    4.1081 C   0  0  0  0  0  0
   -3.5001    8.2061    4.2193 C   0  0  0  0  0  0
    1.6171    5.2337    0.7686 C   0  0  0  0  0  0
   -2.6476   10.5754    5.2960 N   0  0  0  0  0  0
   -1.2629   11.0064    3.5401 N   0  0  0  0  0  0
   -3.9816    8.6027    5.4153 N   0  0  0  0  0  0
    3.0912    5.6084    0.9913 C   0  0  0  0  0  0
   -3.5240    9.7634    5.8895 C   0  0  0  0  0  0
    3.6074    4.8046    2.0311 O   0  0  0  0  0  0
   -4.0511   10.2096    7.2368 C   0  0  0  0  0  0
    3.2202    3.1485    2.1544 P   0  0  0  0  0  0
    4.4389    2.4978    3.1508 O   0  0  0  0  0  0
    1.9112    3.0327    2.8342 O   0  0  0  0  0  0
    4.5651    1.1796    4.2271 P   0  0  0  0  0  0
    2.9531    0.7451    4.5543 O   0  0  0  0  0  0
    5.2329    0.0646    3.5167 O   0  0  0  0  0  0
    1.3043    0.4995    3.9119 P   0  0  0  0  0  0
    0.5911    1.8197    4.2763 O   0  0  0  0  0  0
   -1.6735    9.3529    1.5729 H   0  0  0  0  0  0
   -2.8846    8.0964    1.5464 H   0  0  0  0  0  0
   -1.2830    7.0836    4.3241 H   0  0  0  0  0  0
    0.6922    7.4168   -0.7557 H   0  0  0  0  0  0
   -1.0174    7.0036   -0.8238 H   0  0  0  0  0  0
   -0.5029    8.6004   -0.2860 H   0  0  0  0  0  0
   -3.8820    7.2732    3.8324 H   0  0  0  0  0  0
    1.4772    4.1705    0.9636 H   0  0  0  0  0  0
    1.3816    5.3683   -0.2876 H   0  0  0  0  0  0
   -0.8888   11.7230    4.1450 H   0  0  0  0  0  0
   -0.5585   10.5832    2.9544 H   0  0  0  0  0  0
    3.6808    5.4524    0.0897 H   0  0  0  0  0  0
    3.1980    6.6601    1.2540 H   0  0  0  0  0  0
   -3.2597   10.1555    7.9846 H   0  0  0  0  0  0
   -4.4057   11.2394    7.1851 H   0  0  0  0  0  0
   -4.8789    9.5819    7.5691 H   0  0  0  0  0  0
    3.3911    2.5706    0.8019 O   0  5  0  0  0  0
    5.1674    1.6996    5.4780 O   0  5  0  0  0  0
    1.5596    0.2620    2.4054 O   0  5  0  0  0  0
    0.8504   -0.7506    4.6999 O   0  5  0  0  0  0
  1  2  1  0  0  0
  1  3  1  0  0  0
  1  4  2  0  0  0
  2  5  1  0  0  0
  2 27  1  0  0  0
  2 28  1  0  0  0
  3  6  2  0  0  0
  3  7  1  0  0  0
  4  8  1  0  0  0
  4 29  1  0  0  0
  5  9  1  0  0  0
  5 10  2  0  0  0
  6 11  1  0  0  0
  6  8  1  0  0  0
  7 30  1  0  0  0
  7 31  1  0  0  0
  7 32  1  0  0  0
  9 12  2  0  0  0
  9 13  1  0  0  0
 10 14  1  0  0  0
 10 33  1  0  0  0
 11 15  1  0  0  0
 11 34  1  0  0  0
 11 35  1  0  0  0
 12 16  1  0  0  0
 13 36  1  0  0  0
 13 37  1  0  0  0
 14 16  2  0  0  0
 15 17  1  0  0  0
 15 38  1  0  0  0
 15 39  1  0  0  0
 16 18  1  0  0  0
 17 19  1  0  0  0
 18 40  1  0  0  0
 18 41  1  0  0  0
 18 42  1  0  0  0
 19 20  1  0  0  0
 19 21  2  0  0  0
 19 43  1  0  0  0
 20 22  1  0  0  0
 22 23  1  0  0  0
 22 24  2  0  0  0
 22 44  1  0  0  0
 23 25  1  0  0  0
 25 26  2  0  0  0
 25 45  1  0  0  0
 25 46  1  0  0  0
M  CHG  5   1   1  43  -1  44  -1  45  -1  46  -1
M  END
> <i_ionizer_Ion_state_n>
15

> <i_ionizer_Tot_Q>
-3

> <s_ionizer_Ion_centers>
43_44_45_46

> <s_ionizer_Ion_types>
OM_OM_OM_OM

> <s_ionizer_Ion_ctrs_in>
21_25_28_29

> <r_ionizer_Ionization_penalty>
2.98356e-05

> <r_ionizer_Ionization_penalty_charging>
2.98356e-05

> <r_ionizer_Ionization_penalty_neutral>
0

> <i_mmod_Serial_Number-OPLS-2005>
520

> <i_i_glide_lignum>
514

> <r_i_docking_score>
-2.94187

> <r_i_glide_gscore>
-2.94187

> <r_i_glide_lipo>
-0.856367

> <r_i_glide_hbond>
0

> <r_i_glide_metal>
0

> <r_i_glide_eburp>
0

> <r_i_glide_evdw>
-38.6114

> <r_i_glide_ecoul>
-5.04337

> <r_i_glide_erotb>
0.83611

> <r_i_glide_esite>
0.671634

> <r_i_glide_emodel>
-87.1072

> <r_i_glide_energy>
-43.6548

> <r_i_glide_einternal>
9.50527

> <i_i_glide_confnum>
69

> <i_i_glide_posenum>
95

$$$$
C05294
                    3D
 Structure written by MMmdl.
 50 53  0  0  1  0            999 V2000
    1.8271    3.0376    2.7508 C   0  0  2  0  0  0
    0.7774    4.0671    2.2133 C   0  0  2  0  0  0
    2.5009    2.3887    1.5226 C   0  0  0  0  0  0
    1.0998    1.9283    3.5685 C   0  0  0  0  0  0
    2.8759    3.7659    3.6520 C   0  0  0  0  0  0
    1.4381    5.2292    1.4052 C   0  0  2  0  0  0
   -0.2464    4.6256    3.2402 C   0  0  0  0  0  0
    2.5671    3.2155    0.2398 C   0  0  0  0  0  0
    2.8660    1.0899    1.4750 C   0  0  0  0  0  0
    1.9238    0.6553    3.8414 C   0  0  0  0  0  0
    3.8933    4.4324    2.9339 O   0  0  0  0  0  0
    0.3064    6.0250    0.7209 C   0  0  1  0  0  0
    2.5596    4.7335    0.4598 C   0  0  0  0  0  0
   -1.3117    5.5250    2.5646 C   0  0  0  0  0  0
    2.6685    0.1634    2.6000 C   0  0  0  0  0  0
   -0.6651    6.6588    1.7400 C   0  0  2  0  0  0
    0.6337    7.1676   -0.2482 C   0  0  0  0  0  0
    3.0864   -0.9924    2.5762 O   0  0  0  0  0  0
   -1.6087    7.3793    0.7544 C   0  0  2  0  0  0
   -0.0009    7.6933    2.6973 C   0  0  0  0  0  0
   -0.6701    7.9901   -0.3086 C   0  0  0  0  0  0
   -2.4478    8.3498    1.3486 O   0  0  0  0  0  0
    0.1636    3.5034    1.5074 H   0  0  0  0  0  0
    1.9289    5.9121    2.0950 H   0  0  0  0  0  0
   -0.2542    5.3011    0.1245 H   0  0  0  0  0  0
    0.7557    2.3254    4.5238 H   0  0  0  0  0  0
    0.1987    1.6256    3.0324 H   0  0  0  0  0  0
    2.4218    4.5318    4.2751 H   0  0  0  0  0  0
    3.3485    3.0596    4.3349 H   0  0  0  0  0  0
   -0.7749    3.8142    3.7387 H   0  0  0  0  0  0
    0.2695    5.1723    4.0285 H   0  0  0  0  0  0
    3.4439    2.9266   -0.3412 H   0  0  0  0  0  0
    1.6997    2.9492   -0.3654 H   0  0  0  0  0  0
    3.2767    0.6770    0.5650 H   0  0  0  0  0  0
    2.6446    0.8170    4.6413 H   0  0  0  0  0  0
    1.2618   -0.1367    4.1936 H   0  0  0  0  0  0
    3.4938    5.0926    2.3889 H   0  0  0  0  0  0
    2.5165    5.2372   -0.5049 H   0  0  0  0  0  0
    3.5254    5.0164    0.8797 H   0  0  0  0  0  0
   -1.9315    4.9056    1.9150 H   0  0  0  0  0  0
   -1.9845    5.9385    3.3167 H   0  0  0  0  0  0
    1.4543    7.7763    0.1331 H   0  0  0  0  0  0
    0.9242    6.8005   -1.2328 H   0  0  0  0  0  0
   -2.2512    6.6439    0.2668 H   0  0  0  0  0  0
    0.4709    8.5167    2.1625 H   0  0  0  0  0  0
   -0.7407    8.1356    3.3649 H   0  0  0  0  0  0
    0.7614    7.2581    3.3401 H   0  0  0  0  0  0
   -0.4523    9.0368   -0.0911 H   0  0  0  0  0  0
   -1.1278    7.9542   -1.2977 H   0  0  0  0  0  0
   -2.0205    9.1908    1.2920 H   0  0  0  0  0  0
  1  2  1  0  0  0
  1  3  1  0  0  0
  1  4  1  0  0  0
  1  5  1  0  0  0
  2  6  1  0  0  0
  2  7  1  0  0  0
  2 23  1  0  0  0
  3  8  1  0  0  0
  3  9  2  0  0  0
  4 10  1  0  0  0
  4 26  1  0  0  0
  4 27  1  0  0  0
  5 11  1  0  0  0
  5 28  1  0  0  0
  5 29  1  0  0  0
  6 12  1  0  0  0
  6 13  1  0  0  0
  6 24  1  0  0  0
  7 14  1  0  0  0
  7 30  1  0  0  0
  7 31  1  0  0  0
  8 13  1  0  0  0
  8 32  1  0  0  0
  8 33  1  0  0  0
  9 15  1  0  0  0
  9 34  1  0  0  0
 10 15  1  0  0  0
 10 35  1  0  0  0
 10 36  1  0  0  0
 11 37  1  0  0  0
 12 16  1  0  0  0
 12 17  1  0  0  0
 12 25  1  0  0  0
 13 38  1  0  0  0
 13 39  1  0  0  0
 14 16  1  0  0  0
 14 40  1  0  0  0
 14 41  1  0  0  0
 15 18  2  0  0  0
 16 19  1  0  0  0
 16 20  1  0  0  0
 17 21  1  0  0  0
 17 42  1  0  0  0
 17 43  1  0  0  0
 19 22  1  0  0  0
 19 21  1  0  0  0
 19 44  1  0  0  0
 20 45  1  0  0  0
 20 46  1  0  0  0
 20 47  1  0  0  0
 21 48  1  0  0  0
 21 49  1  0  0  0
 22 50  1  0  0  0
M  END
> <i_ionizer_Ion_state_n>
0

> <i_ionizer_Tot_Q>
0

> <s_ionizer_Ion_centers>


> <s_ionizer_Ion_types>


> <s_ionizer_Ion_ctrs_in>


> <r_ionizer_Ionization_penalty>
0

> <r_ionizer_Ionization_penalty_charging>
0

> <r_ionizer_Ionization_penalty_neutral>
0

> <s_st_Chirality_1>
1_S_5_3_2_4

> <s_st_Chirality_2>
2_S_1_6_7_23

> <s_st_Chirality_3>
6_R_12_2_13_24

> <s_st_Chirality_4>
12_S_16_6_17_25

> <s_st_Chirality_5>
16_S_19_12_14_20

> <s_st_Chirality_6>
19_S_22_16_21_44

> <s_st_EZ_1>
1_3_9_15_Z

> <i_mmod_Serial_Number-OPLS-2005>
668

> <i_i_glide_lignum>
661

> <r_i_docking_score>
-2.94098

> <r_i_glide_gscore>
-2.94098

> <r_i_glide_lipo>
-1.65377

> <r_i_glide_hbond>
-0.237004

> <r_i_glide_metal>
0

> <r_i_glide_eburp>
-1.48157

> <r_i_glide_evdw>
4.19875

> <r_i_glide_ecoul>
-0.910209

> <r_i_glide_erotb>
0.227415

> <r_i_glide_esite>
-0.0409315

> <r_i_glide_emodel>
3.3177

> <r_i_glide_energy>
3.28854

> <r_i_glide_einternal>
3.26262

> <i_i_glide_confnum>
2

> <i_i_glide_posenum>
159

$$$$
C01596
                    3D
 Structure written by MMmdl.
 12 11  0  0  1  0            999 V2000
    1.7624    0.9763    3.8409 C   0  0  0  0  0  0
    1.9586    1.7303    2.6086 C   0  0  0  0  0  0
    2.6650    0.0012    3.9628 N   0  0  0  0  0  0
    0.9017    1.1584    4.6993 O   0  0  0  0  0  0
    1.3061    2.8697    2.2930 C   0  0  0  0  0  0
    0.2315    3.6459    3.1048 C   0  0  0  0  0  0
    0.0958    3.3008    4.2986 O   0  0  0  0  0  0
    2.6744    1.3627    1.8870 H   0  0  0  0  0  0
    2.6395   -0.5972    4.7750 H   0  0  0  0  0  0
    3.3643   -0.1336    3.2482 H   0  0  0  0  0  0
    1.5589    3.3147    1.3425 H   0  0  0  0  0  0
   -0.4224    4.4992    2.4669 O   0  5  0  0  0  0
  1  2  1  0  0  0
  1  3  1  0  0  0
  1  4  2  0  0  0
  2  5  2  0  0  0
  2  8  1  0  0  0
  3  9  1  0  0  0
  3 10  1  0  0  0
  5  6  1  0  0  0
  5 11  1  0  0  0
  6  7  2  0  0  0
  6 12  1  0  0  0
M  CHG  1  12  -1
M  END
> <i_ionizer_Ion_state_n>
1

> <i_ionizer_Tot_Q>
-1

> <s_ionizer_Ion_centers>
12

> <s_ionizer_Ion_types>
OM

> <s_ionizer_Ion_ctrs_in>
7

> <r_ionizer_Ionization_penalty>
0.00059219

> <r_ionizer_Ionization_penalty_charging>
0.00059219

> <r_ionizer_Ionization_penalty_neutral>
0

> <s_st_EZ_1>
1_2_5_6_Z

> <i_mmod_Serial_Number-OPLS-2005>
449

> <i_i_glide_lignum>
445

> <r_i_docking_score>
-2.92231

> <r_i_glide_gscore>
-2.92231

> <r_i_glide_lipo>
-0.117276

> <r_i_glide_hbond>
-0.7

> <r_i_glide_metal>
0

> <r_i_glide_eburp>
-2.5

> <r_i_glide_evdw>
-11.4978

> <r_i_glide_ecoul>
-7.24866

> <r_i_glide_erotb>
2.29295

> <r_i_glide_esite>
-0.253285

> <r_i_glide_emodel>
-40.9283

> <r_i_glide_energy>
-18.7465

> <r_i_glide_einternal>
1.47547

> <i_i_glide_confnum>
4

> <i_i_glide_posenum>
525

$$$$
C00131
                    3D
 Structure written by MMmdl.
 42 44  0  0  1  0            999 V2000
   -2.6142    8.0994    3.8878 N   0  0  0  0  0  0
   -3.4293    8.9091    4.6478 C   0  0  0  0  0  0
   -2.9237    7.6060    2.5085 C   0  0  2  0  0  0
   -1.4992    7.8791    4.6731 C   0  0  0  0  0  0
   -2.7379    9.1191    5.8714 C   0  0  0  0  0  0
   -4.6525    9.4211    4.3211 N   0  0  0  0  0  0
   -2.3180    6.3565    2.3487 O   0  0  0  0  0  0
   -2.3053    8.5413    1.4693 C   0  0  0  0  0  0
   -1.5240    8.4472    5.8502 N   0  0  0  0  0  0
   -3.4006    9.9364    6.8207 C   0  0  0  0  0  0
   -5.1515   10.1680    5.3103 C   0  0  0  0  0  0
   -1.2516    6.4394    1.4018 C   0  0  1  0  0  0
   -0.9305    7.9324    1.2976 C   0  0  1  0  0  0
   -4.6138   10.4456    6.5030 N   0  0  0  0  0  0
   -2.8817   10.2304    8.0200 N   0  0  0  0  0  0
   -0.0790    5.5472    1.8247 C   0  0  0  0  0  0
   -0.3519    8.2887    0.0606 O   0  0  0  0  0  0
   -0.5552    4.2314    2.0259 O   0  0  0  0  0  0
    0.3643    3.0563    2.8431 P   0  0  0  0  0  0
    1.9753    3.3238    2.3640 O   0  0  0  0  0  0
    0.2556    3.3119    4.2980 O   0  0  0  0  0  0
    3.2017    2.4377    1.5831 P   0  0  0  0  0  0
    2.9411    0.8123    2.0083 O   0  0  0  0  0  0
    3.0058    2.5555    0.1187 O   0  0  0  0  0  0
    1.9042   -0.3418    2.8885 P   0  0  0  0  0  0
    1.5384    0.4397    4.1701 O   0  0  0  0  0  0
   -4.0111    7.5395    2.4640 H   0  0  0  0  0  0
   -0.6578    7.2824    4.3518 H   0  0  0  0  0  0
   -2.8858    8.4660    0.5487 H   0  0  0  0  0  0
   -2.2968    9.5800    1.8022 H   0  0  0  0  0  0
   -6.1200   10.6069    5.1210 H   0  0  0  0  0  0
   -1.6567    6.0835    0.4528 H   0  0  0  0  0  0
   -0.2822    8.2524    2.1099 H   0  0  0  0  0  0
   -3.3934   10.8190    8.6603 H   0  0  0  0  0  0
   -1.9729    9.8677    8.2706 H   0  0  0  0  0  0
    0.7170    5.5589    1.0837 H   0  0  0  0  0  0
    0.3444    5.9217    2.7567 H   0  0  0  0  0  0
   -0.0994    9.2031    0.1231 H   0  0  0  0  0  0
   -0.0448    1.7326    2.3198 O   0  5  0  0  0  0
    4.4975    2.8644    2.1621 O   0  5  0  0  0  0
    0.7506   -0.5835    1.8889 O   0  5  0  0  0  0
    2.8690   -1.5331    3.0891 O   0  5  0  0  0  0
  1  2  1  0  0  0
  1  3  1  0  0  0
  1  4  1  0  0  0
  2  5  2  0  0  0
  2  6  1  0  0  0
  3  7  1  0  0  0
  3  8  1  0  0  0
  3 27  1  0  0  0
  4  9  2  0  0  0
  4 28  1  0  0  0
  5 10  1  0  0  0
  5  9  1  0  0  0
  6 11  2  0  0  0
  7 12  1  0  0  0
  8 13  1  0  0  0
  8 29  1  0  0  0
  8 30  1  0  0  0
 10 14  2  0  0  0
 10 15  1  0  0  0
 11 14  1  0  0  0
 11 31  1  0  0  0
 12 16  1  0  0  0
 12 13  1  0  0  0
 12 32  1  0  0  0
 13 17  1  0  0  0
 13 33  1  0  0  0
 15 34  1  0  0  0
 15 35  1  0  0  0
 16 18  1  0  0  0
 16 36  1  0  0  0
 16 37  1  0  0  0
 17 38  1  0  0  0
 18 19  1  0  0  0
 19 20  1  0  0  0
 19 21  2  0  0  0
 19 39  1  0  0  0
 20 22  1  0  0  0
 22 23  1  0  0  0
 22 24  2  0  0  0
 22 40  1  0  0  0
 23 25  1  0  0  0
 25 26  2  0  0  0
 25 41  1  0  0  0
 25 42  1  0  0  0
M  CHG  4  39  -1  40  -1  41  -1  42  -1
M  END
> <i_ionizer_Ion_state_n>
30

> <i_ionizer_Tot_Q>
-4

> <s_ionizer_Ion_centers>
39_40_41_42

> <s_ionizer_Ion_types>
OM_OM_OM_OM

> <s_ionizer_Ion_ctrs_in>
21_25_28_29

> <r_ionizer_Ionization_penalty>
4.85714e-05

> <r_ionizer_Ionization_penalty_charging>
2.98356e-05

> <r_ionizer_Ionization_penalty_neutral>
1.87357e-05

> <s_st_Chirality_1>
3_R_7_1_8_27

> <s_st_Chirality_2>
12_R_7_13_16_32

> <s_st_Chirality_3>
13_S_17_12_8_33

> <i_mmod_Serial_Number-OPLS-2005>
95

> <i_i_glide_lignum>
93

> <r_i_docking_score>
-2.91975

> <r_i_glide_gscore>
-2.91975

> <r_i_glide_lipo>
-0.453554

> <r_i_glide_hbond>
-1.15072

> <r_i_glide_metal>
0

> <r_i_glide_eburp>
-0.0973118

> <r_i_glide_evdw>
-20.3091

> <r_i_glide_ecoul>
-11.5426

> <r_i_glide_erotb>
0.68523

> <r_i_glide_esite>
0.875589

> <r_i_glide_emodel>
-75.0886

> <r_i_glide_energy>
-31.8516

> <r_i_glide_einternal>
2.01219

> <i_i_glide_confnum>
73

> <i_i_glide_posenum>
291

$$$$
C00669
                    3D
 Structure written by MMmdl.
 29 28  0  0  1  0            999 V2000
    0.5875    5.2092    2.2843 C   0  0  2  0  0  0
    1.6784    4.3438    1.8238 N   0  0  0  0  0  0
   -0.5601    4.3813    2.8813 C   0  0  0  0  0  0
    0.1752    6.2958    1.2600 C   0  0  0  0  0  0
    2.1507    3.2203    2.3912 C   0  0  0  0  0  0
   -0.3021    3.7009    3.8987 O   0  0  0  0  0  0
   -1.0590    7.4263    1.9668 S   0  0  0  0  0  0
    3.2135    2.4579    1.5965 C   0  0  0  0  0  0
    1.7802    2.7911    3.4832 O   0  0  0  0  0  0
    3.8756    1.3395    2.4283 C   0  0  0  0  0  0
    2.8829    0.5069    3.2715 C   0  0  1  0  0  0
    1.7214   -0.0418    2.4298 C   0  0  0  0  0  0
    1.2871    0.6741    1.4994 O   0  0  0  0  0  0
    1.0338    5.7463    3.1227 H   0  0  0  0  0  0
    2.1430    4.6531    0.9828 H   0  0  0  0  0  0
    1.0415    6.8888    0.9656 H   0  0  0  0  0  0
   -0.2394    5.8561    0.3527 H   0  0  0  0  0  0
   -0.9951    8.3332    0.9880 H   0  0  0  0  0  0
    2.7332    2.0304    0.7159 H   0  0  0  0  0  0
    3.9681    3.1558    1.2305 H   0  0  0  0  0  0
    4.4449    0.6858    1.7648 H   0  0  0  0  0  0
    4.6084    1.7832    3.1043 H   0  0  0  0  0  0
    2.4902    1.1311    4.0762 H   0  0  0  0  0  0
    2.9081   -1.1430    4.4692 H   0  0  0  0  0  0
    3.9160   -1.2430    3.1702 H   0  0  0  0  0  0
   -1.6691    4.4303    2.3051 O   0  5  0  0  0  0
    3.5685   -0.6353    3.8984 N   0  3  0  0  0  0
    4.3343   -0.3061    4.4677 H   0  0  0  0  0  0
    1.2990   -1.1820    2.7200 O   0  5  0  0  0  0
  1  2  1  0  0  0
  1  3  1  0  0  0
  1  4  1  0  0  0
  1 14  1  0  0  0
  2  5  1  0  0  0
  2 15  1  0  0  0
  3  6  2  0  0  0
  3 26  1  0  0  0
  4  7  1  0  0  0
  4 16  1  0  0  0
  4 17  1  0  0  0
  5  8  1  0  0  0
  5  9  2  0  0  0
  7 18  1  0  0  0
  8 10  1  0  0  0
  8 19  1  0  0  0
  8 20  1  0  0  0
 10 11  1  0  0  0
 10 21  1  0  0  0
 10 22  1  0  0  0
 11 12  1  0  0  0
 11 23  1  0  0  0
 11 27  1  0  0  0
 12 13  2  0  0  0
 12 29  1  0  0  0
 24 27  1  0  0  0
 25 27  1  0  0  0
 27 28  1  0  0  0
M  CHG  3  26  -1  27   1  29  -1
M  END
> <i_ionizer_Ion_state_n>
13

> <i_ionizer_Tot_Q>
-1

> <s_ionizer_Ion_centers>
26_27_29

> <s_ionizer_Ion_types>
OM_N5_OM

> <s_ionizer_Ion_ctrs_in>
6_14_15

> <r_ionizer_Ionization_penalty>
0.00324236

> <r_ionizer_Ionization_penalty_charging>
0.00137171

> <r_ionizer_Ionization_penalty_neutral>
0.00187065

> <s_st_Chirality_1>
1_R_2_4_3_14

> <s_st_Chirality_2>
11_S_27_12_10_23

> <i_mmod_Serial_Number-OPLS-2005>
314

> <i_i_glide_lignum>
312

> <r_i_docking_score>
-2.90126

> <r_i_glide_gscore>
-2.90126

> <r_i_glide_lipo>
-0.305175

> <r_i_glide_hbond>
-1.65465

> <r_i_glide_metal>
0

> <r_i_glide_eburp>
-2.29949

> <r_i_glide_evdw>
-18.7823

> <r_i_glide_ecoul>
-11.5496

> <r_i_glide_erotb>
3.85937

> <r_i_glide_esite>
0.15623

> <r_i_glide_emodel>
-72.7449

> <r_i_glide_energy>
-30.3319

> <r_i_glide_einternal>
3.23067

> <i_i_glide_confnum>
8

> <i_i_glide_posenum>
722

$$$$
C00583
                    3D
 Structure written by MMmdl.
 13 12  0  0  1  0            999 V2000
    4.7134    0.2974    4.1770 C   0  0  1  0  0  0
    5.6149    1.1028    5.1322 C   0  0  0  0  0  0
    3.2637    0.1432    4.6612 C   0  0  0  0  0  0
    4.7364    0.8816    2.8904 O   0  0  0  0  0  0
    5.6997    0.5004    6.4087 O   0  0  0  0  0  0
    5.1448   -0.6986    4.0713 H   0  0  0  0  0  0
    6.6234    1.1667    4.7225 H   0  0  0  0  0  0
    5.2505    2.1255    5.2366 H   0  0  0  0  0  0
    3.2298   -0.3128    5.6510 H   0  0  0  0  0  0
    2.6897   -0.4921    3.9861 H   0  0  0  0  0  0
    2.7549    1.1059    4.7208 H   0  0  0  0  0  0
    4.2374    0.3358    2.3025 H   0  0  0  0  0  0
    5.7225   -0.4378    6.2985 H   0  0  0  0  0  0
  1  2  1  0  0  0
  1  3  1  0  0  0
  1  4  1  0  0  0
  1  6  1  0  0  0
  2  5  1  0  0  0
  2  7  1  0  0  0
  2  8  1  0  0  0
  3  9  1  0  0  0
  3 10  1  0  0  0
  3 11  1  0  0  0
  4 12  1  0  0  0
  5 13  1  0  0  0
M  END
> <i_ionizer_Ion_state_n>
0

> <i_ionizer_Tot_Q>
0

> <s_ionizer_Ion_centers>


> <s_ionizer_Ion_types>


> <s_ionizer_Ion_ctrs_in>


> <r_ionizer_Ionization_penalty>
0

> <r_ionizer_Ionization_penalty_charging>
0

> <r_ionizer_Ionization_penalty_neutral>
0

> <s_st_Chirality_1>
1_R_4_2_3_6

> <i_mmod_Serial_Number-OPLS-2005>
287

> <i_i_glide_lignum>
285

> <r_i_docking_score>
-2.87599

> <r_i_glide_gscore>
-2.87599

> <r_i_glide_lipo>
-0.322459

> <r_i_glide_hbond>
-0.852711

> <r_i_glide_metal>
0

> <r_i_glide_eburp>
-2.5

> <r_i_glide_evdw>
-9.54104

> <r_i_glide_ecoul>
-6.50257

> <r_i_glide_erotb>
2.08952

> <r_i_glide_esite>
0.123197

> <r_i_glide_emodel>
-18.8678

> <r_i_glide_energy>
-16.0436

> <r_i_glide_einternal>
0.818676

> <i_i_glide_confnum>
2

> <i_i_glide_posenum>
197

$$$$
C02165
                    3D
 Structure written by MMmdl.
 55 54  0  0  1  0            999 V2000
   -2.3684    6.7482    2.1868 C   0  0  0  0  0  0
   -2.2303    5.4109    2.2887 C   0  0  0  0  0  0
   -1.3372    7.8326    2.4711 C   0  0  2  0  0  0
   -1.0212    4.7052    2.6708 C   0  0  0  0  0  0
   -1.8847    8.9121    3.4259 C   0  0  0  0  0  0
   -0.8575    8.4178    1.2765 O   0  0  0  0  0  0
   -0.9436    3.3648    2.6993 C   0  0  0  0  0  0
   -2.0903    8.4460    4.8799 C   0  0  0  0  0  0
    0.2621    2.6574    3.0761 C   0  0  0  0  0  0
   -3.2658    9.1442    5.5971 C   0  0  0  0  0  0
    0.3660    1.3193    3.0273 C   0  0  0  0  0  0
   -4.6332    8.5632    5.2159 C   0  0  0  0  0  0
    1.6063    0.5400    3.4148 C   0  0  1  0  0  0
   -4.6945    7.3724    4.8363 O   0  0  0  0  0  0
    2.8106    1.4729    3.6237 C   0  0  0  0  0  0
    1.3594   -0.1681    4.6116 O   0  0  0  0  0  0
    4.1113    0.7102    3.8152 C   0  0  0  0  0  0
    5.0223    0.4028    2.8730 C   0  0  0  0  0  0
    4.9798    0.7676    1.4000 C   0  0  0  0  0  0
    5.5885   -0.3332    0.5208 C   0  0  0  0  0  0
    6.0913    0.2014   -0.8281 C   0  0  0  0  0  0
    6.5362   -0.9198   -1.7782 C   0  0  0  0  0  0
    7.9126   -1.4877   -1.4149 C   0  0  0  0  0  0
   -3.3298    7.1226    1.8664 H   0  0  0  0  0  0
   -3.0997    4.8148    2.0517 H   0  0  0  0  0  0
   -0.4894    7.3292    2.9353 H   0  0  0  0  0  0
   -0.1412    5.2701    2.9391 H   0  0  0  0  0  0
   -1.2075    9.7670    3.4263 H   0  0  0  0  0  0
   -2.8337    9.2875    3.0408 H   0  0  0  0  0  0
   -1.3606    9.1997    1.1055 H   0  0  0  0  0  0
   -1.8172    2.7880    2.4299 H   0  0  0  0  0  0
   -2.2223    7.3636    4.9066 H   0  0  0  0  0  0
   -1.1700    8.6475    5.4303 H   0  0  0  0  0  0
    1.1149    3.2305    3.4112 H   0  0  0  0  0  0
   -3.1455    9.0566    6.6774 H   0  0  0  0  0  0
   -3.2788   10.2086    5.3643 H   0  0  0  0  0  0
   -0.4779    0.7307    2.6964 H   0  0  0  0  0  0
    1.8338   -0.1820    2.6290 H   0  0  0  0  0  0
    2.9379    2.1034    2.7429 H   0  0  0  0  0  0
    2.6219    2.1582    4.4486 H   0  0  0  0  0  0
    2.1536   -0.6145    4.8633 H   0  0  0  0  0  0
    4.3042    0.3883    4.8283 H   0  0  0  0  0  0
    5.8907   -0.1642    3.1760 H   0  0  0  0  0  0
    3.9644    0.9869    1.0750 H   0  0  0  0  0  0
    5.5402    1.6941    1.2717 H   0  0  0  0  0  0
    6.4132   -0.8096    1.0526 H   0  0  0  0  0  0
    4.8426   -1.1102    0.3475 H   0  0  0  0  0  0
    5.3027    0.7868   -1.3027 H   0  0  0  0  0  0
    6.9242    0.8852   -0.6593 H   0  0  0  0  0  0
    5.8008   -1.7251   -1.7640 H   0  0  0  0  0  0
    6.5621   -0.5438   -2.8016 H   0  0  0  0  0  0
    8.2005   -2.2804   -2.1058 H   0  0  0  0  0  0
    8.6810   -0.7153   -1.4564 H   0  0  0  0  0  0
    7.9125   -1.9076   -0.4086 H   0  0  0  0  0  0
   -5.6078    9.3414    5.3018 O   0  5  0  0  0  0
  1  2  2  0  0  0
  1  3  1  0  0  0
  1 24  1  0  0  0
  2  4  1  0  0  0
  2 25  1  0  0  0
  3  5  1  0  0  0
  3  6  1  0  0  0
  3 26  1  0  0  0
  4  7  2  0  0  0
  4 27  1  0  0  0
  5  8  1  0  0  0
  5 28  1  0  0  0
  5 29  1  0  0  0
  6 30  1  0  0  0
  7  9  1  0  0  0
  7 31  1  0  0  0
  8 10  1  0  0  0
  8 32  1  0  0  0
  8 33  1  0  0  0
  9 11  2  0  0  0
  9 34  1  0  0  0
 10 12  1  0  0  0
 10 35  1  0  0  0
 10 36  1  0  0  0
 11 13  1  0  0  0
 11 37  1  0  0  0
 12 14  2  0  0  0
 12 55  1  0  0  0
 13 15  1  0  0  0
 13 16  1  0  0  0
 13 38  1  0  0  0
 15 17  1  0  0  0
 15 39  1  0  0  0
 15 40  1  0  0  0
 16 41  1  0  0  0
 17 18  2  0  0  0
 17 42  1  0  0  0
 18 19  1  0  0  0
 18 43  1  0  0  0
 19 20  1  0  0  0
 19 44  1  0  0  0
 19 45  1  0  0  0
 20 21  1  0  0  0
 20 46  1  0  0  0
 20 47  1  0  0  0
 21 22  1  0  0  0
 21 48  1  0  0  0
 21 49  1  0  0  0
 22 23  1  0  0  0
 22 50  1  0  0  0
 22 51  1  0  0  0
 23 52  1  0  0  0
 23 53  1  0  0  0
 23 54  1  0  0  0
M  CHG  1  55  -1
M  END
> <i_ionizer_Ion_state_n>
1

> <i_ionizer_Tot_Q>
-1

> <s_ionizer_Ion_centers>
55

> <s_ionizer_Ion_types>
OM

> <s_ionizer_Ion_ctrs_in>
14

> <r_ionizer_Ionization_penalty>
0.00059219

> <r_ionizer_Ionization_penalty_charging>
0.00059219

> <r_ionizer_Ionization_penalty_neutral>
0

> <s_st_Chirality_1>
3_S_6_1_5_26

> <s_st_Chirality_2>
13_R_16_11_15_38

> <s_st_EZ_1>
3_1_2_4_Z

> <s_st_EZ_2>
7_9_11_13_E

> <s_st_EZ_3>
15_17_18_19_Z

> <i_mmod_Serial_Number-OPLS-2005>
474

> <i_i_glide_lignum>
469

> <r_i_docking_score>
-2.87461

> <r_i_glide_gscore>
-2.87461

> <r_i_glide_lipo>
-1.53828

> <r_i_glide_hbond>
-0.561083

> <r_i_glide_metal>
0

> <r_i_glide_eburp>
-1.24646

> <r_i_glide_evdw>
-25.3682

> <r_i_glide_ecoul>
-2.99665

> <r_i_glide_erotb>
2.30003

> <r_i_glide_esite>
0.500313

> <r_i_glide_emodel>
-47.0397

> <r_i_glide_energy>
-28.3649

> <r_i_glide_einternal>
9.94933

> <i_i_glide_confnum>
509

> <i_i_glide_posenum>
44

$$$$
C02218
                    3D
 Structure written by MMmdl.
 10  9  0  0  1  0            999 V2000
    2.1510   -0.2681    3.4632 C   0  0  0  0  0  0
    1.0211    0.8141    3.3407 C   0  0  0  0  0  0
    2.5103   -1.1023    2.4732 C   0  0  0  0  0  0
    2.7658   -0.2999    4.6999 N   0  0  0  0  0  0
    0.3391    0.7877    2.2923 O   0  0  0  0  0  0
    3.2962   -1.8302    2.6109 H   0  0  0  0  0  0
    2.0242   -1.0709    1.5087 H   0  0  0  0  0  0
    3.5095   -0.9437    4.9245 H   0  0  0  0  0  0
    2.4747    0.3400    5.4266 H   0  0  0  0  0  0
    0.8999    1.6091    4.3009 O   0  5  0  0  0  0
  1  2  1  0  0  0
  1  3  2  0  0  0
  1  4  1  0  0  0
  2  5  2  0  0  0
  2 10  1  0  0  0
  3  6  1  0  0  0
  3  7  1  0  0  0
  4  8  1  0  0  0
  4  9  1  0  0  0
M  CHG  1  10  -1
M  END
> <i_ionizer_Ion_state_n>
1

> <i_ionizer_Tot_Q>
-1

> <s_ionizer_Ion_centers>
10

> <s_ionizer_Ion_types>
OM

> <s_ionizer_Ion_ctrs_in>
5

> <r_ionizer_Ionization_penalty>
0.00059219

> <r_ionizer_Ionization_penalty_charging>
0.00059219

> <r_ionizer_Ionization_penalty_neutral>
0

> <i_mmod_Serial_Number-OPLS-2005>
479

> <i_i_glide_lignum>
474

> <r_i_docking_score>
-2.83967

> <r_i_glide_gscore>
-2.83967

> <r_i_glide_lipo>
-0.211696

> <r_i_glide_hbond>
-0.45

> <r_i_glide_metal>
0

> <r_i_glide_eburp>
-2.5

> <r_i_glide_evdw>
-8.9552

> <r_i_glide_ecoul>
-3.59459

> <r_i_glide_erotb>
1.74833

> <r_i_glide_esite>
-0.350431

> <r_i_glide_emodel>
-25.947

> <r_i_glide_energy>
-12.5498

> <r_i_glide_einternal>
0.178943

> <i_i_glide_confnum>
1

> <i_i_glide_posenum>
927

$$$$
C00061
                    3D
 Structure written by MMmdl.
 50 52  0  0  1  0            999 V2000
    1.5833    2.5590    3.5076 N   0  0  0  0  0  0
    0.9474    3.6384    2.9520 C   0  0  0  0  0  0
    2.9382    2.5975    3.9011 C   0  0  0  0  0  0
    0.8571    1.2903    3.7260 C   0  0  0  0  0  0
    1.7238    4.7990    2.6709 C   0  0  0  0  0  0
   -0.4391    3.6747    2.6505 C   0  0  0  0  0  0
    3.6640    3.8847    3.5614 C   0  0  0  0  0  0
    3.5405    1.6099    4.5051 N   0  0  0  0  0  0
    1.1930    0.2073    2.6662 C   0  0  2  0  0  0
    3.0915    4.8656    2.9785 N   0  0  0  0  0  0
    1.1251    5.9329    2.0882 C   0  0  0  0  0  0
   -1.0365    4.8129    2.0698 C   0  0  0  0  0  0
    5.1183    3.9329    3.9580 C   0  0  0  0  0  0
    4.8907    1.6903    4.8695 C   0  0  0  0  0  0
    2.7155    0.0822    2.3763 C   0  0  2  0  0  0
    0.5409    0.5809    1.4691 O   0  0  0  0  0  0
   -0.2486    5.9491    1.7814 C   0  0  0  0  0  0
   -2.5249    4.7989    1.7671 C   0  0  0  0  0  0
    5.5778    2.8232    4.5757 N   0  0  0  0  0  0
    5.8270    4.9136    3.7337 O   0  0  0  0  0  0
    5.4744    0.7732    5.4406 O   0  0  0  0  0  0
    3.2212    0.8019    1.0951 C   0  0  1  0  0  0
    3.0518   -1.2863    2.2396 O   0  0  0  0  0  0
   -0.8590    7.1906    1.1553 C   0  0  0  0  0  0
    4.7596    0.8636    0.9655 C   0  0  0  0  0  0
    2.6794    0.1589   -0.0398 O   0  0  0  0  0  0
    5.3252   -0.4073    0.6775 O   0  0  0  0  0  0
    7.1060   -0.4740    0.4610 P   0  0  0  0  0  0
    7.4187    0.9113   -0.1465 O   0  0  0  0  0  0
    0.9677    0.8981    4.7353 H   0  0  0  0  0  0
   -0.2111    1.5087    3.7063 H   0  0  0  0  0  0
   -1.0857    2.8401    2.8651 H   0  0  0  0  0  0
    0.8081   -0.7623    2.9821 H   0  0  0  0  0  0
    1.7306    6.8036    1.8809 H   0  0  0  0  0  0
    3.2752    0.4569    3.2349 H   0  0  0  0  0  0
    0.9279    1.3929    1.1679 H   0  0  0  0  0  0
   -2.9840    3.8535    2.0578 H   0  0  0  0  0  0
   -3.0323    5.5963    2.3103 H   0  0  0  0  0  0
   -2.6988    4.9405    0.7003 H   0  0  0  0  0  0
    6.5480    2.8370    4.8530 H   0  0  0  0  0  0
    2.8286    1.8199    1.0968 H   0  0  0  0  0  0
    3.1124   -1.6676    3.1023 H   0  0  0  0  0  0
   -1.6317    7.6045    1.8035 H   0  0  0  0  0  0
   -0.1084    7.9647    0.9930 H   0  0  0  0  0  0
   -1.3065    6.9515    0.1904 H   0  0  0  0  0  0
    5.0309    1.4938    0.1188 H   0  0  0  0  0  0
    5.2209    1.3272    1.8378 H   0  0  0  0  0  0
    3.2921   -0.5307   -0.2863 H   0  0  0  0  0  0
    7.5991   -0.7018    1.9076 O   0  5  0  0  0  0
    7.2530   -1.6772   -0.4954 O   0  5  0  0  0  0
  1  2  1  0  0  0
  1  3  1  0  0  0
  1  4  1  0  0  0
  2  5  2  0  0  0
  2  6  1  0  0  0
  3  7  1  0  0  0
  3  8  2  0  0  0
  4  9  1  0  0  0
  4 30  1  0  0  0
  4 31  1  0  0  0
  5 10  1  0  0  0
  5 11  1  0  0  0
  6 12  2  0  0  0
  6 32  1  0  0  0
  7 13  1  0  0  0
  7 10  2  0  0  0
  8 14  1  0  0  0
  9 15  1  0  0  0
  9 16  1  0  0  0
  9 33  1  0  0  0
 11 17  2  0  0  0
 11 34  1  0  0  0
 12 18  1  0  0  0
 12 17  1  0  0  0
 13 19  1  0  0  0
 13 20  2  0  0  0
 14 21  2  0  0  0
 14 19  1  0  0  0
 15 22  1  0  0  0
 15 23  1  0  0  0
 15 35  1  0  0  0
 16 36  1  0  0  0
 17 24  1  0  0  0
 18 37  1  0  0  0
 18 38  1  0  0  0
 18 39  1  0  0  0
 19 40  1  0  0  0
 22 25  1  0  0  0
 22 26  1  0  0  0
 22 41  1  0  0  0
 23 42  1  0  0  0
 24 43  1  0  0  0
 24 44  1  0  0  0
 24 45  1  0  0  0
 25 27  1  0  0  0
 25 46  1  0  0  0
 25 47  1  0  0  0
 26 48  1  0  0  0
 27 28  1  0  0  0
 28 29  2  0  0  0
 28 49  1  0  0  0
 28 50  1  0  0  0
M  CHG  2  49  -1  50  -1
M  END
> <i_ionizer_Ion_state_n>
3

> <i_ionizer_Tot_Q>
-2

> <s_ionizer_Ion_centers>
49_50

> <s_ionizer_Ion_types>
OM_OM

> <s_ionizer_Ion_ctrs_in>
29_30

> <r_ionizer_Ionization_penalty>
1.49178e-05

> <r_ionizer_Ionization_penalty_charging>
1.49178e-05

> <r_ionizer_Ionization_penalty_neutral>
0

> <s_st_Chirality_1>
9_R_16_15_4_33

> <s_st_Chirality_2>
15_R_23_22_9_35

> <s_st_Chirality_3>
22_R_26_15_25_41

> <i_mmod_Serial_Number-OPLS-2005>
42

> <i_i_glide_lignum>
41

> <r_i_docking_score>
-2.82933

> <r_i_glide_gscore>
-2.82933

> <r_i_glide_lipo>
-1.39764

> <r_i_glide_hbond>
-0.0088776

> <r_i_glide_metal>
0

> <r_i_glide_eburp>
-0.345938

> <r_i_glide_evdw>
-1.76943

> <r_i_glide_ecoul>
-3.5642

> <r_i_glide_erotb>
0.667051

> <r_i_glide_esite>
-1.24595

> <r_i_glide_emodel>
-4.01871

> <r_i_glide_energy>
-5.33364

> <r_i_glide_einternal>
27.7851

> <i_i_glide_confnum>
45

> <i_i_glide_posenum>
564

$$$$
C00762
                    3D
 Structure written by MMmdl.
 54 57  0  0  1  0            999 V2000
    2.5208    1.0730    2.1551 C   0  0  1  0  0  0
    1.6977    2.2836    2.6385 C   0  0  1  0  0  0
    4.0359    1.3296    2.1595 C   0  0  1  0  0  0
    2.3723   -0.2618    2.8866 C   0  0  0  0  0  0
    1.9840    3.5295    1.7434 C   0  0  1  0  0  0
    0.1988    1.9619    2.6231 C   0  0  0  0  0  0
    4.5706   -0.0767    1.7368 C   0  0  2  0  0  0
    4.3401    2.4960    1.1911 C   0  0  0  0  0  0
    4.5402    1.7147    3.5830 C   0  0  0  0  0  0
    3.6263   -1.0600    2.4808 C   0  0  0  0  0  0
    1.1465    4.7946    2.1613 C   0  0  2  0  0  0
    3.5133    3.7382    1.5528 C   0  0  0  0  0  0
   -0.6139    3.1535    3.1238 C   0  0  0  0  0  0
    6.0708   -0.3081    2.0392 C   0  0  0  0  0  0
    4.3375   -0.2725    0.3485 O   0  0  0  0  0  0
   -0.3387    4.3993    2.3008 C   0  0  0  0  0  0
    1.3018    5.8947    1.0707 C   0  0  0  0  0  0
    1.6129    5.3636    3.5197 C   0  0  0  0  0  0
    4.0672    4.8304    1.6598 O   0  0  0  0  0  0
    7.0100   -0.5719    0.8530 C   0  0  0  0  0  0
    6.4961   -0.2885    3.1958 O   0  0  0  0  0  0
   -1.3669    5.0819    1.7539 C   0  0  0  0  0  0
    0.2165    6.9764    1.1008 C   0  0  0  0  0  0
    6.6995    0.2554   -0.2515 O   0  0  0  0  0  0
   -1.1631    6.3364    1.0208 C   0  0  0  0  0  0
   -2.0560    6.8908    0.3836 O   0  0  0  0  0  0
    2.2172    0.8915    1.1228 H   0  0  0  0  0  0
    1.9719    2.5103    3.6680 H   0  0  0  0  0  0
    1.6344    3.2601    0.7459 H   0  0  0  0  0  0
    1.4523   -0.7782    2.6125 H   0  0  0  0  0  0
    2.3594   -0.1060    3.9655 H   0  0  0  0  0  0
   -0.1157    1.6988    1.6126 H   0  0  0  0  0  0
   -0.0070    1.0957    3.2520 H   0  0  0  0  0  0
    4.0934    2.2292    0.1638 H   0  0  0  0  0  0
    5.4014    2.7448    1.2112 H   0  0  0  0  0  0
    4.0588    2.6119    3.9697 H   0  0  0  0  0  0
    5.6113    1.9180    3.5777 H   0  0  0  0  0  0
    4.3658    0.9182    4.3060 H   0  0  0  0  0  0
    4.0881   -1.4805    3.3742 H   0  0  0  0  0  0
    3.3570   -1.9014    1.8412 H   0  0  0  0  0  0
   -1.6776    2.9154    3.0965 H   0  0  0  0  0  0
   -0.3658    3.3591    4.1652 H   0  0  0  0  0  0
    4.3752   -1.1977    0.1614 H   0  0  0  0  0  0
    2.2727    6.3816    1.1496 H   0  0  0  0  0  0
    1.2822    5.4264    0.0858 H   0  0  0  0  0  0
    0.9759    6.1904    3.8343 H   0  0  0  0  0  0
    1.5770    4.6099    4.3057 H   0  0  0  0  0  0
    2.6326    5.7437    3.4766 H   0  0  0  0  0  0
    8.0398   -0.3867    1.1591 H   0  0  0  0  0  0
    6.9348   -1.6163    0.5508 H   0  0  0  0  0  0
   -2.3836    4.7403    1.8827 H   0  0  0  0  0  0
    0.2828    7.5597    2.0191 H   0  0  0  0  0  0
    0.3482    7.6679    0.2682 H   0  0  0  0  0  0
    5.8628   -0.0085   -0.6027 H   0  0  0  0  0  0
  1  2  1  0  0  0
  1  3  1  0  0  0
  1  4  1  0  0  0
  1 27  1  0  0  0
  2  5  1  0  0  0
  2  6  1  0  0  0
  2 28  1  0  0  0
  3  7  1  0  0  0
  3  8  1  0  0  0
  3  9  1  0  0  0
  4 10  1  0  0  0
  4 30  1  0  0  0
  4 31  1  0  0  0
  5 11  1  0  0  0
  5 12  1  0  0  0
  5 29  1  0  0  0
  6 13  1  0  0  0
  6 32  1  0  0  0
  6 33  1  0  0  0
  7 14  1  0  0  0
  7 15  1  0  0  0
  7 10  1  0  0  0
  8 12  1  0  0  0
  8 34  1  0  0  0
  8 35  1  0  0  0
  9 36  1  0  0  0
  9 37  1  0  0  0
  9 38  1  0  0  0
 10 39  1  0  0  0
 10 40  1  0  0  0
 11 16  1  0  0  0
 11 17  1  0  0  0
 11 18  1  0  0  0
 12 19  2  0  0  0
 13 16  1  0  0  0
 13 41  1  0  0  0
 13 42  1  0  0  0
 14 20  1  0  0  0
 14 21  2  0  0  0
 15 43  1  0  0  0
 16 22  2  0  0  0
 17 23  1  0  0  0
 17 44  1  0  0  0
 17 45  1  0  0  0
 18 46  1  0  0  0
 18 47  1  0  0  0
 18 48  1  0  0  0
 20 24  1  0  0  0
 20 49  1  0  0  0
 20 50  1  0  0  0
 22 25  1  0  0  0
 22 51  1  0  0  0
 23 25  1  0  0  0
 23 52  1  0  0  0
 23 53  1  0  0  0
 24 54  1  0  0  0
 25 26  2  0  0  0
M  END
> <i_ionizer_Ion_state_n>
0

> <i_ionizer_Tot_Q>
0

> <s_ionizer_Ion_centers>


> <s_ionizer_Ion_types>


> <s_ionizer_Ion_ctrs_in>


> <r_ionizer_Ionization_penalty>
0

> <r_ionizer_Ionization_penalty_charging>
0

> <r_ionizer_Ionization_penalty_neutral>
0

> <s_st_Chirality_1>
1_S_3_2_4_27

> <s_st_Chirality_2>
2_S_5_1_6_28

> <s_st_Chirality_3>
3_S_7_1_8_9

> <s_st_Chirality_4>
5_S_12_11_2_29

> <s_st_Chirality_5>
7_R_15_14_3_10

> <s_st_Chirality_6>
11_R_16_5_17_18

> <s_st_EZ_1>
11_16_22_25_Z

> <i_mmod_Serial_Number-OPLS-2005>
330

> <i_i_glide_lignum>
327

> <r_i_docking_score>
-2.82028

> <r_i_glide_gscore>
-2.82028

> <r_i_glide_lipo>
-1.67599

> <r_i_glide_hbond>
0

> <r_i_glide_metal>
0

> <r_i_glide_eburp>
-1.05716

> <r_i_glide_evdw>
0.297069

> <r_i_glide_ecoul>
2.30731

> <r_i_glide_erotb>
0.337405

> <r_i_glide_esite>
-0.679026

> <r_i_glide_emodel>
3.50533

> <r_i_glide_energy>
2.60437

> <r_i_glide_einternal>
2.14551

> <i_i_glide_confnum>
1

> <i_i_glide_posenum>
171

$$$$
C01176
                    3D
 Structure written by MMmdl.
 54 57  0  0  1  0            999 V2000
    1.6330    2.2826    2.6676 C   0  0  1  0  0  0
    2.4687    1.0906    2.1667 C   0  0  1  0  0  0
    1.9353    3.5215    1.7781 C   0  0  1  0  0  0
    0.1330    1.9641    2.6276 C   0  0  0  0  0  0
    3.9822    1.3540    2.1754 C   0  0  1  0  0  0
    2.3269   -0.2612    2.8695 C   0  0  0  0  0  0
    1.1046    4.7811    2.1832 C   0  0  2  0  0  0
    3.4615    3.7929    1.6657 C   0  0  0  0  0  0
   -0.6906    3.1605    3.1048 C   0  0  0  0  0  0
    4.5153   -0.0401    1.7090 C   0  0  2  0  0  0
    4.2676    2.5477    1.2403 C   0  0  0  0  0  0
    4.4845    1.6963    3.6092 C   0  0  0  0  0  0
    3.6006   -1.0342    2.4720 C   0  0  0  0  0  0
   -0.3860    4.4079    2.2931 C   0  0  0  0  0  0
    1.3122    5.8689    1.0957 C   0  0  0  0  0  0
    1.5674    5.3409    3.5441 C   0  0  0  0  0  0
    6.0220   -0.3003    1.9209 C   0  0  0  0  0  0
    4.2489   -0.2199    0.3265 O   0  0  0  0  0  0
   -1.3893    5.1125    1.7287 C   0  0  0  0  0  0
    0.2507    6.9750    1.1048 C   0  0  0  0  0  0
    6.8918   -0.4708    0.6782 C   0  0  0  0  0  0
    6.5377   -0.3025    3.0377 O   0  0  0  0  0  0
   -1.1436    6.3664    1.0046 C   0  0  0  0  0  0
   -2.0143    6.9449    0.3581 O   0  0  0  0  0  0
    1.9009    2.4998    3.7005 H   0  0  0  0  0  0
    2.1673    0.9290    1.1306 H   0  0  0  0  0  0
    1.6073    3.2500    0.7736 H   0  0  0  0  0  0
   -0.1624    1.6970    1.6124 H   0  0  0  0  0  0
   -0.0849    1.1001    3.2555 H   0  0  0  0  0  0
    2.2904   -0.1280    3.9509 H   0  0  0  0  0  0
    1.4195   -0.7832    2.5656 H   0  0  0  0  0  0
    3.6476    4.5853    0.9417 H   0  0  0  0  0  0
    3.8461    4.1596    2.6161 H   0  0  0  0  0  0
   -1.7542    2.9280    3.0470 H   0  0  0  0  0  0
   -0.4705    3.3643    4.1529 H   0  0  0  0  0  0
    5.3333    2.7768    1.2317 H   0  0  0  0  0  0
    3.9979    2.2940    0.2152 H   0  0  0  0  0  0
    4.3578    0.8599    4.2961 H   0  0  0  0  0  0
    5.5416    1.9591    3.6102 H   0  0  0  0  0  0
    3.9596    2.5461    4.0415 H   0  0  0  0  0  0
    4.0877   -1.4094    3.3727 H   0  0  0  0  0  0
    3.3542   -1.9009    1.8577 H   0  0  0  0  0  0
    2.3001    6.3185    1.1966 H   0  0  0  0  0  0
    1.2975    5.3989    0.1115 H   0  0  0  0  0  0
    0.9462    6.1825    3.8511 H   0  0  0  0  0  0
    1.5087    4.5898    4.3312 H   0  0  0  0  0  0
    2.5962    5.6976    3.5030 H   0  0  0  0  0  0
    4.4935   -1.0995    0.0835 H   0  0  0  0  0  0
   -2.4148    4.7897    1.8342 H   0  0  0  0  0  0
    0.3151    7.5599    2.0223 H   0  0  0  0  0  0
    0.4115    7.6606    0.2724 H   0  0  0  0  0  0
    7.9276   -0.2147    0.9018 H   0  0  0  0  0  0
    6.8594   -1.5043    0.3338 H   0  0  0  0  0  0
    6.5451    0.1759   -0.1276 H   0  0  0  0  0  0
  1  2  1  0  0  0
  1  3  1  0  0  0
  1  4  1  0  0  0
  1 25  1  0  0  0
  2  5  1  0  0  0
  2  6  1  0  0  0
  2 26  1  0  0  0
  3  7  1  0  0  0
  3  8  1  0  0  0
  3 27  1  0  0  0
  4  9  1  0  0  0
  4 28  1  0  0  0
  4 29  1  0  0  0
  5 10  1  0  0  0
  5 11  1  0  0  0
  5 12  1  0  0  0
  6 13  1  0  0  0
  6 30  1  0  0  0
  6 31  1  0  0  0
  7 14  1  0  0  0
  7 15  1  0  0  0
  7 16  1  0  0  0
  8 11  1  0  0  0
  8 32  1  0  0  0
  8 33  1  0  0  0
  9 14  1  0  0  0
  9 34  1  0  0  0
  9 35  1  0  0  0
 10 17  1  0  0  0
 10 18  1  0  0  0
 10 13  1  0  0  0
 11 36  1  0  0  0
 11 37  1  0  0  0
 12 38  1  0  0  0
 12 39  1  0  0  0
 12 40  1  0  0  0
 13 41  1  0  0  0
 13 42  1  0  0  0
 14 19  2  0  0  0
 15 20  1  0  0  0
 15 43  1  0  0  0
 15 44  1  0  0  0
 16 45  1  0  0  0
 16 46  1  0  0  0
 16 47  1  0  0  0
 17 21  1  0  0  0
 17 22  2  0  0  0
 18 48  1  0  0  0
 19 23  1  0  0  0
 19 49  1  0  0  0
 20 23  1  0  0  0
 20 50  1  0  0  0
 20 51  1  0  0  0
 21 52  1  0  0  0
 21 53  1  0  0  0
 21 54  1  0  0  0
 23 24  2  0  0  0
M  END
> <i_ionizer_Ion_state_n>
0

> <i_ionizer_Tot_Q>
0

> <s_ionizer_Ion_centers>


> <s_ionizer_Ion_types>


> <s_ionizer_Ion_ctrs_in>


> <r_ionizer_Ionization_penalty>
0

> <r_ionizer_Ionization_penalty_charging>
0

> <r_ionizer_Ionization_penalty_neutral>
0

> <s_st_Chirality_1>
1_R_2_3_4_25

> <s_st_Chirality_2>
2_S_5_1_6_26

> <s_st_Chirality_3>
3_S_7_1_8_27

> <s_st_Chirality_4>
5_S_10_2_11_12

> <s_st_Chirality_5>
7_R_14_3_15_16

> <s_st_Chirality_6>
10_R_18_17_5_13

> <s_st_EZ_1>
7_14_19_23_Z

> <i_mmod_Serial_Number-OPLS-2005>
414

> <i_i_glide_lignum>
410

> <r_i_docking_score>
-2.81706

> <r_i_glide_gscore>
-2.81706

> <r_i_glide_lipo>
-1.78396

> <r_i_glide_hbond>
0

> <r_i_glide_metal>
0

> <r_i_glide_eburp>
-1.28431

> <r_i_glide_evdw>
7.73837

> <r_i_glide_ecoul>
2.91558

> <r_i_glide_erotb>
0

> <r_i_glide_esite>
-0.659414

> <r_i_glide_emodel>
8.5915

> <r_i_glide_energy>
10.6539

> <r_i_glide_einternal>
1.91186

> <i_i_glide_confnum>
1

> <i_i_glide_posenum>
994

$$$$
C03824
                    3D
 Structure written by MMmdl.
 16 15  0  0  1  0            999 V2000
    3.1873   -0.1496    3.3473 C   0  0  0  0  0  0
    4.1074   -0.3043    2.3696 C   0  0  0  0  0  0
    1.6455   -0.5087    3.3315 C   0  0  0  0  0  0
    3.5777    0.3921    4.5576 N   0  0  0  0  0  0
    3.8974   -0.8514    1.0342 C   0  0  0  0  0  0
    1.1850   -1.0506    2.3043 O   0  0  0  0  0  0
    4.8394   -1.0396    0.0873 C   0  0  0  0  0  0
    6.2653   -0.7169    0.2488 C   0  0  0  0  0  0
    7.0919   -0.8838   -0.6455 O   0  0  0  0  0  0
    5.1055    0.0186    2.6218 H   0  0  0  0  0  0
    2.8986    0.5130    5.2973 H   0  0  0  0  0  0
    4.5250    0.6812    4.7507 H   0  0  0  0  0  0
    2.9012   -1.1435    0.7465 H   0  0  0  0  0  0
    4.5423   -1.4563   -0.8639 H   0  0  0  0  0  0
    6.5634   -0.3152    1.2156 H   0  0  0  0  0  0
    0.9996   -0.2170    4.3647 O   0  5  0  0  0  0
  1  2  2  0  0  0
  1  3  1  0  0  0
  1  4  1  0  0  0
  2  5  1  0  0  0
  2 10  1  0  0  0
  3  6  2  0  0  0
  3 16  1  0  0  0
  4 11  1  0  0  0
  4 12  1  0  0  0
  5  7  2  0  0  0
  5 13  1  0  0  0
  7  8  1  0  0  0
  7 14  1  0  0  0
  8  9  2  0  0  0
  8 15  1  0  0  0
M  CHG  1  16  -1
M  END
> <i_ionizer_Ion_state_n>
1

> <i_ionizer_Tot_Q>
-1

> <s_ionizer_Ion_centers>
16

> <s_ionizer_Ion_types>
OM

> <s_ionizer_Ion_ctrs_in>
6

> <r_ionizer_Ionization_penalty>
0.00059219

> <r_ionizer_Ionization_penalty_charging>
0.00059219

> <r_ionizer_Ionization_penalty_neutral>
0

> <s_st_EZ_1>
4_1_2_5_E

> <i_mmod_Serial_Number-OPLS-2005>
570

> <i_i_glide_lignum>
564

> <r_i_docking_score>
-2.7502

> <r_i_glide_gscore>
-2.7502

> <r_i_glide_lipo>
-0.341534

> <r_i_glide_hbond>
-0.143705

> <r_i_glide_metal>
0

> <r_i_glide_eburp>
-2.5

> <r_i_glide_evdw>
-16.2962

> <r_i_glide_ecoul>
-2.67022

> <r_i_glide_erotb>
2.49662

> <r_i_glide_esite>
-0.690862

> <r_i_glide_emodel>
-31.81

> <r_i_glide_energy>
-18.9665

> <r_i_glide_einternal>
0.255263

> <i_i_glide_confnum>
2

> <i_i_glide_posenum>
341

$$$$
C05711
                    3D
 Structure written by MMmdl.
 29 28  0  0  1  0            999 V2000
    0.6244    5.0701    2.2392 C   0  0  2  0  0  0
    1.9027    5.2257    2.9327 N   0  0  0  0  0  0
   -0.0026    6.4664    2.0627 C   0  0  0  0  0  0
   -0.3201    4.2141    3.0973 C   0  0  0  0  0  0
    2.8198    4.2607    3.1005 C   0  0  0  0  0  0
   -1.3748    6.4301    1.5309 C   0  0  0  0  0  0
    0.1500    3.6977    4.1359 O   0  0  0  0  0  0
    2.4488    2.8759    2.5626 C   0  0  0  0  0  0
    3.9046    4.4469    3.6520 O   0  0  0  0  0  0
   -2.4543    6.4002    1.1151 N   0  0  0  0  0  0
    3.2607    1.7400    3.2206 C   0  0  0  0  0  0
    2.7812    0.3207    2.8402 C   0  0  2  0  0  0
    1.3176    0.0785    3.2381 C   0  0  0  0  0  0
    0.6342   -0.6788    2.5124 O   0  0  0  0  0  0
    0.7717    4.6060    1.2619 H   0  0  0  0  0  0
    2.0687    6.1176    3.3747 H   0  0  0  0  0  0
   -0.0185    7.0244    3.0002 H   0  0  0  0  0  0
    0.5890    7.0534    1.3596 H   0  0  0  0  0  0
    1.3808    2.7247    2.7223 H   0  0  0  0  0  0
    2.6101    2.8585    1.4837 H   0  0  0  0  0  0
    4.3072    1.8417    2.9283 H   0  0  0  0  0  0
    3.2432    1.8600    4.3055 H   0  0  0  0  0  0
    2.8966    0.1828    1.7635 H   0  0  0  0  0  0
    3.2985   -1.6161    3.2122 H   0  0  0  0  0  0
    4.5793   -0.5710    3.2528 H   0  0  0  0  0  0
   -1.5000    4.1001    2.7009 O   0  5  0  0  0  0
    3.6098   -0.7004    3.5024 N   0  3  0  0  0  0
    3.4955   -0.6108    4.5020 H   0  0  0  0  0  0
    0.9000    0.6722    4.2558 O   0  5  0  0  0  0
  1  2  1  0  0  0
  1  3  1  0  0  0
  1  4  1  0  0  0
  1 15  1  0  0  0
  2  5  1  0  0  0
  2 16  1  0  0  0
  3  6  1  0  0  0
  3 17  1  0  0  0
  3 18  1  0  0  0
  4  7  2  0  0  0
  4 26  1  0  0  0
  5  8  1  0  0  0
  5  9  2  0  0  0
  6 10  3  0  0  0
  8 11  1  0  0  0
  8 19  1  0  0  0
  8 20  1  0  0  0
 11 12  1  0  0  0
 11 21  1  0  0  0
 11 22  1  0  0  0
 12 13  1  0  0  0
 12 23  1  0  0  0
 12 27  1  0  0  0
 13 14  2  0  0  0
 13 29  1  0  0  0
 24 27  1  0  0  0
 25 27  1  0  0  0
 27 28  1  0  0  0
M  CHG  3  26  -1  27   1  29  -1
M  END
> <i_ionizer_Ion_state_n>
7

> <i_ionizer_Tot_Q>
-1

> <s_ionizer_Ion_centers>
26_27_29

> <s_ionizer_Ion_types>
OM_N5_OM

> <s_ionizer_Ion_ctrs_in>
7_15_16

> <r_ionizer_Ionization_penalty>
0.00137171

> <r_ionizer_Ionization_penalty_charging>
0.00137171

> <r_ionizer_Ionization_penalty_neutral>
0

> <s_st_Chirality_1>
1_R_2_4_3_15

> <s_st_Chirality_2>
12_R_27_13_11_23

> <i_mmod_Serial_Number-OPLS-2005>
784

> <i_i_glide_lignum>
775

> <r_i_docking_score>
-2.74518

> <r_i_glide_gscore>
-2.74518

> <r_i_glide_lipo>
-0.308317

> <r_i_glide_hbond>
-1.42483

> <r_i_glide_metal>
0

> <r_i_glide_eburp>
-2.35293

> <r_i_glide_evdw>
-18.0574

> <r_i_glide_ecoul>
-11.5044

> <r_i_glide_erotb>
4.05364

> <r_i_glide_esite>
-0.117705

> <r_i_glide_emodel>
-69.7028

> <r_i_glide_energy>
-29.5618

> <r_i_glide_einternal>
9.16227

> <i_i_glide_confnum>
28

> <i_i_glide_posenum>
208

$$$$
C05119
                    3D
 Structure written by MMmdl.
 43 42  0  0  1  0            999 V2000
    1.5018    4.7423    2.5240 S   0  0  0  0  0  0
   -0.2874    5.0197    2.5593 C   0  0  0  0  0  0
    1.5437    3.0503    3.1837 C   0  0  0  0  0  0
   -0.7350    6.4752    2.3886 C   0  0  0  0  0  0
   -1.1055    4.1116    2.6998 O   0  0  0  0  0  0
    2.9872    2.5761    3.4102 C   0  0  0  0  0  0
   -1.1964    6.8512    0.9594 C   0  0  0  0  0  0
    3.0890    1.2156    4.1279 C   0  0  1  0  0  0
   -1.8793    8.2283    0.8884 C   0  0  0  0  0  0
   -0.0740    6.7343   -0.0864 C   0  0  0  0  0  0
    2.4922    0.0461    3.3108 C   0  0  0  0  0  0
    4.8550    0.8997    4.4221 S   0  0  0  0  0  0
    2.8534    0.0339    1.8121 C   0  0  0  0  0  0
    4.3687    0.0867    1.5358 C   0  0  0  0  0  0
    4.7380   -0.0953    0.0500 C   0  0  0  0  0  0
    6.2093   -0.4567   -0.1845 C   0  0  0  0  0  0
    6.5290   -0.9487   -1.3829 N   0  0  0  0  0  0
    7.0483   -0.3009    0.7000 O   0  0  0  0  0  0
    0.9917    3.0235    4.1239 H   0  0  0  0  0  0
    1.0289    2.3926    2.4838 H   0  0  0  0  0  0
   -1.5384    6.6792    3.0973 H   0  0  0  0  0  0
    0.0926    7.1203    2.6858 H   0  0  0  0  0  0
    3.5162    2.5352    2.4571 H   0  0  0  0  0  0
    3.4976    3.3326    4.0083 H   0  0  0  0  0  0
   -1.9540    6.1163    0.6840 H   0  0  0  0  0  0
    2.5986    1.2933    5.0979 H   0  0  0  0  0  0
   -2.3091    8.3998   -0.0988 H   0  0  0  0  0  0
   -2.6883    8.3042    1.6155 H   0  0  0  0  0  0
   -1.1774    9.0393    1.0840 H   0  0  0  0  0  0
   -0.4636    6.8785   -1.0945 H   0  0  0  0  0  0
    0.7057    7.4799    0.0720 H   0  0  0  0  0  0
    0.3934    5.7498   -0.0536 H   0  0  0  0  0  0
    1.4062    0.0605    3.4112 H   0  0  0  0  0  0
    2.8114   -0.9037    3.7387 H   0  0  0  0  0  0
    4.6972   -0.3242    4.9338 H   0  0  0  0  0  0
    2.4550   -0.8822    1.3748 H   0  0  0  0  0  0
    2.3455    0.8487    1.2965 H   0  0  0  0  0  0
    4.7853    1.0266    1.8983 H   0  0  0  0  0  0
    4.8612   -0.6972    2.1120 H   0  0  0  0  0  0
    4.1303   -0.8941   -0.3762 H   0  0  0  0  0  0
    4.4858    0.8105   -0.5032 H   0  0  0  0  0  0
    7.4875   -1.2002   -1.5758 H   0  0  0  0  0  0
    5.8177   -1.0674   -2.0892 H   0  0  0  0  0  0
  1  2  1  0  0  0
  1  3  1  0  0  0
  2  4  1  0  0  0
  2  5  2  0  0  0
  3  6  1  0  0  0
  3 19  1  0  0  0
  3 20  1  0  0  0
  4  7  1  0  0  0
  4 21  1  0  0  0
  4 22  1  0  0  0
  6  8  1  0  0  0
  6 23  1  0  0  0
  6 24  1  0  0  0
  7  9  1  0  0  0
  7 10  1  0  0  0
  7 25  1  0  0  0
  8 11  1  0  0  0
  8 12  1  0  0  0
  8 26  1  0  0  0
  9 27  1  0  0  0
  9 28  1  0  0  0
  9 29  1  0  0  0
 10 30  1  0  0  0
 10 31  1  0  0  0
 10 32  1  0  0  0
 11 13  1  0  0  0
 11 33  1  0  0  0
 11 34  1  0  0  0
 12 35  1  0  0  0
 13 14  1  0  0  0
 13 36  1  0  0  0
 13 37  1  0  0  0
 14 15  1  0  0  0
 14 38  1  0  0  0
 14 39  1  0  0  0
 15 16  1  0  0  0
 15 40  1  0  0  0
 15 41  1  0  0  0
 16 17  1  0  0  0
 16 18  2  0  0  0
 17 42  1  0  0  0
 17 43  1  0  0  0
M  END
> <i_ionizer_Ion_state_n>
0

> <i_ionizer_Tot_Q>
0

> <s_ionizer_Ion_centers>


> <s_ionizer_Ion_types>


> <s_ionizer_Ion_ctrs_in>


> <r_ionizer_Ionization_penalty>
0.00187065

> <r_ionizer_Ionization_penalty_charging>
0

> <r_ionizer_Ionization_penalty_neutral>
0.00187065

> <s_st_Chirality_1>
8_R_12_6_11_26

> <i_mmod_Serial_Number-OPLS-2005>
626

> <i_i_glide_lignum>
619

> <r_i_docking_score>
-2.7384

> <r_i_glide_gscore>
-2.7384

> <r_i_glide_lipo>
-0.838438

> <r_i_glide_hbond>
-1.21151

> <r_i_glide_metal>
0

> <r_i_glide_eburp>
-1.57971

> <r_i_glide_evdw>
-35.9284

> <r_i_glide_ecoul>
-5.11084

> <r_i_glide_erotb>
4.41691

> <r_i_glide_esite>
-0.1403

> <r_i_glide_emodel>
-53.6122

> <r_i_glide_energy>
-41.0392

> <r_i_glide_einternal>
8.72279

> <i_i_glide_confnum>
213

> <i_i_glide_posenum>
929

$$$$
C06715
                    3D
 Structure written by MMmdl.
 98100  0  0  1  0            999 V2000
    1.2917    3.2334    3.0860 N   0  0  0  0  0  0
    1.5620    4.6989    3.0948 C   0  0  2  0  0  0
    2.2194    2.2428    3.3092 C   0  0  0  0  0  0
    0.0990    2.5723    2.8811 C   0  0  0  0  0  0
    0.4781    5.3195    3.7118 O   0  0  0  0  0  0
    1.6512    5.2439    1.6623 C   0  0  1  0  0  0
    1.5018    1.0187    3.2332 C   0  0  0  0  0  0
    3.5536    2.3767    3.5664 N   0  0  0  0  0  0
    0.1652    1.2687    2.9517 N   0  0  0  0  0  0
    0.1260    6.4961    2.9951 C   0  0  1  0  0  0
    0.3492    6.0317    1.5578 C   0  0  1  0  0  0
    2.7723    6.0956    1.5295 O   0  0  0  0  0  0
    2.2644   -0.1546    3.4568 C   0  0  0  0  0  0
    4.1376    1.1894    3.7511 C   0  0  0  0  0  0
   -1.3273    6.9025    3.2917 C   0  0  0  0  0  0
    0.3727    7.0952    0.6143 O   0  0  0  0  0  0
    3.5872   -0.0290    3.7154 N   0  0  0  0  0  0
    1.7362   -1.3851    3.4283 N   0  0  0  0  0  0
   -1.5001    7.6193    4.5075 O   0  0  0  0  0  0
   -1.0811    7.2885   -0.4197 P   0  0  0  0  0  0
   -2.7784    8.7241    4.7590 P   0  0  0  0  0  0
   -0.6713    6.5714   -1.7257 O   0  0  0  0  0  0
   -2.5291    9.1357    6.3927 O   0  0  0  0  0  0
   -2.5613    9.9051    3.8920 O   0  0  0  0  0  0
   -1.2424    9.6603    7.3739 P   0  0  0  0  0  0
   -1.9845   10.0593    8.8541 O   0  0  0  0  0  0
   -0.3079    8.5322    7.5914 O   0  0  0  0  0  0
   -1.2950   10.0188   10.0900 C   0  0  0  0  0  0
   -2.1125   10.6991   11.2175 C   0  0  0  0  0  0
   -1.1802   10.8801   12.4632 C   0  0  2  0  0  0
   -2.6789   12.0457   10.7112 C   0  0  0  0  0  0
   -3.2969    9.7700   11.5756 C   0  0  0  0  0  0
   -1.8663   11.4484   13.7198 C   0  0  0  0  0  0
   -0.0647   11.6941   12.1466 O   0  0  0  0  0  0
   -1.5629   10.8515   14.8821 N   0  0  0  0  0  0
   -2.6298   12.4119   13.6436 O   0  0  0  0  0  0
   -0.6593    9.7172   15.0150 C   0  0  0  0  0  0
    0.7378   10.1896   15.4550 C   0  0  0  0  0  0
    1.7255    9.0420   15.6910 C   0  0  0  0  0  0
    2.9231    9.1667   15.1018 N   0  0  0  0  0  0
    1.4160    8.0703   16.3810 O   0  0  0  0  0  0
    3.9997    8.1925   15.2182 C   0  0  0  0  0  0
    5.3255    8.7877   14.7311 C   0  0  0  0  0  0
    6.6537    7.5489   14.7567 S   0  0  0  0  0  0
    7.9433    8.4946   13.9063 C   0  0  0  0  0  0
    9.3525    7.8979   13.9728 C   0  0  0  0  0  0
    7.7208    9.5408   13.2978 O   0  0  0  0  0  0
   10.3863    8.7643   13.2356 C   0  0  0  0  0  0
   11.7300    8.0895   12.9397 C   0  0  0  0  0  0
   10.1631    9.9295   12.8993 O   0  0  0  0  0  0
   12.6693    8.9282   12.0532 C   0  0  0  0  0  0
   13.9960    8.1984   11.7610 C   0  0  0  0  0  0
   14.8413    8.8827   10.6789 C   0  0  0  0  0  0
   15.4128    8.1726    9.8216 O   0  0  0  0  0  0
    2.4754    4.8191    3.6792 H   0  0  0  0  0  0
   -0.8306    3.0906    2.6924 H   0  0  0  0  0  0
    1.7161    4.4394    0.9283 H   0  0  0  0  0  0
    0.8156    7.3051    3.2422 H   0  0  0  0  0  0
   -0.4575    5.3451    1.2955 H   0  0  0  0  0  0
    3.5464    5.5558    1.6619 H   0  0  0  0  0  0
    5.1967    1.2183    3.9600 H   0  0  0  0  0  0
   -1.6858    7.5499    2.4912 H   0  0  0  0  0  0
   -1.9756    6.0257    3.2925 H   0  0  0  0  0  0
    2.3225   -2.1891    3.5956 H   0  0  0  0  0  0
    0.7491   -1.4981    3.2467 H   0  0  0  0  0  0
   -1.1070    8.9723   10.3298 H   0  0  0  0  0  0
   -0.3171   10.4894    9.9833 H   0  0  0  0  0  0
   -0.7715    9.9027   12.7261 H   0  0  0  0  0  0
   -3.2886   12.5447   11.4634 H   0  0  0  0  0  0
   -1.8834   12.7316   10.4191 H   0  0  0  0  0  0
   -3.3147   11.9011    9.8374 H   0  0  0  0  0  0
   -3.9615   10.2160   12.3155 H   0  0  0  0  0  0
   -3.9113    9.5450   10.7033 H   0  0  0  0  0  0
   -2.9437    8.8222   11.9800 H   0  0  0  0  0  0
    0.7043   11.1473   12.1049 H   0  0  0  0  0  0
   -1.9714   11.2202   15.7286 H   0  0  0  0  0  0
   -1.0714    9.0160   15.7429 H   0  0  0  0  0  0
   -0.5984    9.1940   14.0587 H   0  0  0  0  0  0
    1.1591   10.8538   14.6992 H   0  0  0  0  0  0
    0.6541   10.7708   16.3746 H   0  0  0  0  0  0
    3.0973    9.9849   14.5364 H   0  0  0  0  0  0
    4.0914    7.8763   16.2586 H   0  0  0  0  0  0
    3.7504    7.3065   14.6319 H   0  0  0  0  0  0
    5.2135    9.1665   13.7143 H   0  0  0  0  0  0
    5.6122    9.6288   15.3639 H   0  0  0  0  0  0
    9.6523    7.7865   15.0151 H   0  0  0  0  0  0
    9.3428    6.9002   13.5328 H   0  0  0  0  0  0
   12.2189    7.8713   13.8897 H   0  0  0  0  0  0
   11.5320    7.1300   12.4610 H   0  0  0  0  0  0
   12.1678    9.1637   11.1127 H   0  0  0  0  0  0
   12.8772    9.8810   12.5436 H   0  0  0  0  0  0
   14.5931    8.1339   12.6712 H   0  0  0  0  0  0
   13.7950    7.1752   11.4419 H   0  0  0  0  0  0
   -2.1582    6.5781    0.4285 O   0  5  0  0  0  0
   -1.1944    8.8276   -0.4996 O   0  5  0  0  0  0
   -4.0467    7.9674    4.6534 O   0  5  0  0  0  0
   -0.7284   10.9230    6.7956 O   0  5  0  0  0  0
   14.8996   10.1304   10.7325 O   0  5  0  0  0  0
  1  2  1  0  0  0
  1  3  1  0  0  0
  1  4  1  0  0  0
  2  5  1  0  0  0
  2  6  1  0  0  0
  2 55  1  0  0  0
  3  7  2  0  0  0
  3  8  1  0  0  0
  4  9  2  0  0  0
  4 56  1  0  0  0
  5 10  1  0  0  0
  6 11  1  0  0  0
  6 12  1  0  0  0
  6 57  1  0  0  0
  7 13  1  0  0  0
  7  9  1  0  0  0
  8 14  2  0  0  0
 10 15  1  0  0  0
 10 11  1  0  0  0
 10 58  1  0  0  0
 11 16  1  0  0  0
 11 59  1  0  0  0
 12 60  1  0  0  0
 13 17  2  0  0  0
 13 18  1  0  0  0
 14 17  1  0  0  0
 14 61  1  0  0  0
 15 19  1  0  0  0
 15 62  1  0  0  0
 15 63  1  0  0  0
 16 20  1  0  0  0
 18 64  1  0  0  0
 18 65  1  0  0  0
 19 21  1  0  0  0
 20 22  2  0  0  0
 20 94  1  0  0  0
 20 95  1  0  0  0
 21 23  1  0  0  0
 21 24  2  0  0  0
 21 96  1  0  0  0
 23 25  1  0  0  0
 25 26  1  0  0  0
 25 27  2  0  0  0
 25 97  1  0  0  0
 26 28  1  0  0  0
 28 29  1  0  0  0
 28 66  1  0  0  0
 28 67  1  0  0  0
 29 30  1  0  0  0
 29 31  1  0  0  0
 29 32  1  0  0  0
 30 33  1  0  0  0
 30 34  1  0  0  0
 30 68  1  0  0  0
 31 69  1  0  0  0
 31 70  1  0  0  0
 31 71  1  0  0  0
 32 72  1  0  0  0
 32 73  1  0  0  0
 32 74  1  0  0  0
 33 35  1  0  0  0
 33 36  2  0  0  0
 34 75  1  0  0  0
 35 37  1  0  0  0
 35 76  1  0  0  0
 37 38  1  0  0  0
 37 77  1  0  0  0
 37 78  1  0  0  0
 38 39  1  0  0  0
 38 79  1  0  0  0
 38 80  1  0  0  0
 39 40  1  0  0  0
 39 41  2  0  0  0
 40 42  1  0  0  0
 40 81  1  0  0  0
 42 43  1  0  0  0
 42 82  1  0  0  0
 42 83  1  0  0  0
 43 44  1  0  0  0
 43 84  1  0  0  0
 43 85  1  0  0  0
 44 45  1  0  0  0
 45 46  1  0  0  0
 45 47  2  0  0  0
 46 48  1  0  0  0
 46 86  1  0  0  0
 46 87  1  0  0  0
 48 49  1  0  0  0
 48 50  2  0  0  0
 49 51  1  0  0  0
 49 88  1  0  0  0
 49 89  1  0  0  0
 51 52  1  0  0  0
 51 90  1  0  0  0
 51 91  1  0  0  0
 52 53  1  0  0  0
 52 92  1  0  0  0
 52 93  1  0  0  0
 53 54  2  0  0  0
 53 98  1  0  0  0
M  CHG  5  94  -1  95  -1  96  -1  97  -1  98  -1
M  END
> <i_ionizer_Ion_state_n>
62

> <i_ionizer_Tot_Q>
-5

> <s_ionizer_Ion_centers>
94_95_96_97_98

> <s_ionizer_Ion_types>
OM_OM_OM_OM_OM

> <s_ionizer_Ion_ctrs_in>
22_23_26_30_58

> <r_ionizer_Ionization_penalty>
0.000640761

> <r_ionizer_Ionization_penalty_charging>
0.000622025

> <r_ionizer_Ionization_penalty_neutral>
1.87357e-05

> <s_st_Chirality_1>
2_R_5_1_6_55

> <s_st_Chirality_2>
6_R_12_2_11_57

> <s_st_Chirality_3>
10_R_5_11_15_58

> <s_st_Chirality_4>
11_R_16_6_10_59

> <s_st_Chirality_5>
30_R_34_33_29_68

> <i_mmod_Serial_Number-OPLS-2005>
889

> <i_i_glide_lignum>
877

> <r_i_docking_score>
-2.72727

> <r_i_glide_gscore>
-2.72727

> <r_i_glide_lipo>
-0.863973

> <r_i_glide_hbond>
-1.38675

> <r_i_glide_metal>
0

> <r_i_glide_eburp>
2.27682e-18

> <r_i_glide_evdw>
-29.3522

> <r_i_glide_ecoul>
8.52591

> <r_i_glide_erotb>
0.527437

> <r_i_glide_esite>
0.491601

> <r_i_glide_emodel>
-9.18326

> <r_i_glide_energy>
-20.8263

> <r_i_glide_einternal>
23.0273

> <i_i_glide_confnum>
342

> <i_i_glide_posenum>
548

$$$$
C07734
                    3D
 Structure written by MMmdl.
 27 27  0  0  1  0            999 V2000
    0.3462    5.8082    1.9690 C   0  0  0  0  0  0
   -0.7615    6.3447    1.2738 C   0  0  0  0  0  0
    0.1551    5.0391    3.0910 O   0  0  0  0  0  0
    1.6504    6.0154    1.4695 C   0  0  0  0  0  0
   -0.5581    7.1068    0.1055 C   0  0  0  0  0  0
   -2.0324    6.1328    1.7276 O   0  0  0  0  0  0
    0.5879    3.7587    3.1086 C   0  0  0  0  0  0
    1.8505    6.7772    0.3023 C   0  0  0  0  0  0
    0.7464    7.3250   -0.3782 C   0  0  0  0  0  0
    1.7050    3.5858    2.1553 C   0  0  0  0  0  0
    0.1001    2.8733    3.8134 O   0  0  0  0  0  0
    2.7799    2.7777    2.2907 C   0  0  0  0  0  0
    3.1137    1.9058    3.4127 C   0  0  0  0  0  0
    2.7263    0.6237    3.6014 C   0  0  0  0  0  0
    1.8004   -0.2749    2.7007 C   0  0  0  0  0  0
    3.1904    0.0051    4.6955 O   0  0  0  0  0  0
    1.6984   -1.4883    2.9801 O   0  0  0  0  0  0
    2.4996    5.5927    1.9862 H   0  0  0  0  0  0
   -1.4008    7.5244   -0.4256 H   0  0  0  0  0  0
   -2.6754    6.6812    1.3054 H   0  0  0  0  0  0
    2.8507    6.9392   -0.0719 H   0  0  0  0  0  0
    0.8996    7.9088   -1.2739 H   0  0  0  0  0  0
    1.6455    4.1719    1.2492 H   0  0  0  0  0  0
    3.4632    2.8186    1.4593 H   0  0  0  0  0  0
    3.7563    2.3003    4.1827 H   0  0  0  0  0  0
    3.4165   -0.8738    4.4234 H   0  0  0  0  0  0
    1.2469    0.3216    1.7496 O   0  5  0  0  0  0
  1  2  2  0  0  0
  1  3  1  0  0  0
  1  4  1  0  0  0
  2  5  1  0  0  0
  2  6  1  0  0  0
  3  7  1  0  0  0
  4  8  2  0  0  0
  4 18  1  0  0  0
  5  9  2  0  0  0
  5 19  1  0  0  0
  6 20  1  0  0  0
  7 10  1  0  0  0
  7 11  2  0  0  0
  8  9  1  0  0  0
  8 21  1  0  0  0
  9 22  1  0  0  0
 10 12  2  0  0  0
 10 23  1  0  0  0
 12 13  1  0  0  0
 12 24  1  0  0  0
 13 14  2  0  0  0
 13 25  1  0  0  0
 14 15  1  0  0  0
 14 16  1  0  0  0
 15 17  2  0  0  0
 15 27  1  0  0  0
 16 26  1  0  0  0
M  CHG  1  27  -1
M  END
> <i_ionizer_Ion_state_n>
2

> <i_ionizer_Tot_Q>
-1

> <s_ionizer_Ion_centers>
27

> <s_ionizer_Ion_types>
OM

> <s_ionizer_Ion_ctrs_in>
17

> <r_ionizer_Ionization_penalty>
0.00118438

> <r_ionizer_Ionization_penalty_charging>
0.00059219

> <r_ionizer_Ionization_penalty_neutral>
0.00059219

> <s_st_EZ_1>
7_10_12_13_Z

> <i_mmod_Serial_Number-OPLS-2005>
909

> <i_i_glide_lignum>
897

> <r_i_docking_score>
-2.71657

> <r_i_glide_gscore>
-2.71657

> <r_i_glide_lipo>
-0.922186

> <r_i_glide_hbond>
-0.690542

> <r_i_glide_metal>
0

> <r_i_glide_eburp>
-1.89999

> <r_i_glide_evdw>
-25.2466

> <r_i_glide_ecoul>
-6.13433

> <r_i_glide_erotb>
3.8611

> <r_i_glide_esite>
-0.431792

> <r_i_glide_emodel>
-49.0402

> <r_i_glide_energy>
-31.381

> <r_i_glide_einternal>
13.8428

> <i_i_glide_confnum>
57

> <i_i_glide_posenum>
288

$$$$
C00100
                    3D
 Structure written by MMmdl.
 88 90  0  0  1  0            999 V2000
   -2.1602   12.3916   10.8442 N   0  0  0  0  0  0
   -2.5090   13.7638   10.3463 C   0  0  2  0  0  0
   -3.0205   11.5022   11.4537 C   0  0  0  0  0  0
   -0.9656   11.7082   10.7367 C   0  0  0  0  0  0
   -3.8359   13.7304    9.8976 O   0  0  0  0  0  0
   -1.6405   14.1472    9.1343 C   0  0  1  0  0  0
   -2.2513   10.3362   11.7179 C   0  0  0  0  0  0
   -4.3402   11.6722   11.7581 N   0  0  0  0  0  0
   -0.9561   10.5067   11.2497 N   0  0  0  0  0  0
   -3.8845   13.7365    8.4706 C   0  0  1  0  0  0
   -2.6762   14.6009    8.1095 C   0  0  1  0  0  0
   -0.6962   15.1622    9.4032 O   0  0  0  0  0  0
   -2.9363    9.2799   12.3693 C   0  0  0  0  0  0
   -4.8498   10.5972   12.3650 C   0  0  0  0  0  0
   -3.8372   12.2893    7.9371 C   0  0  0  0  0  0
   -3.0659   15.9543    8.3177 O   0  0  0  0  0  0
   -4.2429    9.4478   12.6791 N   0  0  0  0  0  0
   -2.3517    8.1183   12.6905 N   0  0  0  0  0  0
   -2.7784   11.5633    8.5252 O   0  0  0  0  0  0
   -3.8199   16.7884    6.9175 P   0  0  0  0  0  0
   -2.0731   10.2346    7.7282 P   0  0  0  0  0  0
   -5.0443   15.8934    6.6293 O   0  0  0  0  0  0
   -3.3686    9.4810    6.9132 O   0  0  0  0  0  0
   -1.1459   10.7683    6.7034 O   0  0  0  0  0  0
   -4.1193    9.5660    5.3835 P   0  0  0  0  0  0
   -3.5466    8.2145    4.5233 O   0  0  0  0  0  0
   -5.5720    9.3677    5.5916 O   0  0  0  0  0  0
   -2.1629    7.9472    4.3915 C   0  0  0  0  0  0
   -1.7627    7.6938    2.9170 C   0  0  0  0  0  0
   -0.4539    6.8304    2.8854 C   0  0  2  0  0  0
   -2.9298    6.9819    2.1932 C   0  0  0  0  0  0
   -1.5188    9.0610    2.2408 C   0  0  0  0  0  0
    0.2167    6.7102    1.5016 C   0  0  0  0  0  0
   -0.6881    5.5367    3.4147 O   0  0  0  0  0  0
    1.5572    6.7779    1.4595 N   0  0  0  0  0  0
   -0.4759    6.5768    0.4924 O   0  0  0  0  0  0
    2.3768    6.4724    0.2967 C   0  0  0  0  0  0
    2.4889    4.9486    0.1179 C   0  0  0  0  0  0
    3.3541    4.2640    1.1785 C   0  0  0  0  0  0
    3.7394    3.0110    0.8992 N   0  0  0  0  0  0
    3.6683    4.8488    2.2160 O   0  0  0  0  0  0
    4.3827    2.1172    1.8519 C   0  0  0  0  0  0
    3.3538    1.1884    2.5063 C   0  0  0  0  0  0
    2.5006    0.1729    1.2644 S   0  0  0  0  0  0
    1.0596   -0.3251    2.2383 C   0  0  0  0  0  0
    1.3891   -1.0595    3.5404 C   0  0  0  0  0  0
   -0.0981   -0.0957    1.8887 O   0  0  0  0  0  0
    2.0338   -0.1611    4.6077 C   0  0  0  0  0  0
   -2.3987   14.4176   11.2121 H   0  0  0  0  0  0
   -0.0883   12.1303   10.2683 H   0  0  0  0  0  0
   -1.1238   13.2647    8.7545 H   0  0  0  0  0  0
   -4.8142   14.2026    8.1426 H   0  0  0  0  0  0
   -2.3590   14.4467    7.0789 H   0  0  0  0  0  0
    0.1700   14.7643    9.3609 H   0  0  0  0  0  0
   -5.8918   10.6676   12.6400 H   0  0  0  0  0  0
   -4.7693   11.7543    8.1176 H   0  0  0  0  0  0
   -3.6885   12.3123    6.8576 H   0  0  0  0  0  0
   -2.8838    7.4007   13.1600 H   0  0  0  0  0  0
   -1.3743    7.9772   12.4795 H   0  0  0  0  0  0
   -1.5735    8.7639    4.8100 H   0  0  0  0  0  0
   -1.9531    7.0721    4.9991 H   0  0  0  0  0  0
    0.2767    7.2910    3.5520 H   0  0  0  0  0  0
   -2.7474    6.8805    1.1234 H   0  0  0  0  0  0
   -3.0890    5.9817    2.5906 H   0  0  0  0  0  0
   -3.8660    7.5298    2.3021 H   0  0  0  0  0  0
   -1.2749    8.9570    1.1837 H   0  0  0  0  0  0
   -2.4025    9.6971    2.3014 H   0  0  0  0  0  0
   -0.6993    9.5985    2.7188 H   0  0  0  0  0  0
   -0.9956    4.9641    2.7286 H   0  0  0  0  0  0
    2.0452    7.0602    2.3059 H   0  0  0  0  0  0
    1.9310    6.9292   -0.5885 H   0  0  0  0  0  0
    3.3656    6.9145    0.4304 H   0  0  0  0  0  0
    1.4917    4.5061    0.1490 H   0  0  0  0  0  0
    2.9013    4.7192   -0.8655 H   0  0  0  0  0  0
    3.5756    2.6592   -0.0338 H   0  0  0  0  0  0
    5.1441    1.5287    1.3373 H   0  0  0  0  0  0
    4.8916    2.7080    2.6152 H   0  0  0  0  0  0
    3.8471    0.5322    3.2247 H   0  0  0  0  0  0
    2.6155    1.7759    3.0538 H   0  0  0  0  0  0
    0.4697   -1.4942    3.9337 H   0  0  0  0  0  0
    2.0563   -1.8902    3.3091 H   0  0  0  0  0  0
    2.2493   -0.7309    5.5117 H   0  0  0  0  0  0
    2.9740    0.2645    4.2548 H   0  0  0  0  0  0
    1.3745    0.6618    4.8867 H   0  0  0  0  0  0
   -4.1297   18.1787    7.5134 O   0  5  0  0  0  0
   -2.6960   16.7608    5.8562 O   0  5  0  0  0  0
   -1.5539    9.3078    8.7587 O   0  5  0  0  0  0
   -3.6564   10.7902    4.6903 O   0  5  0  0  0  0
  1  2  1  0  0  0
  1  3  1  0  0  0
  1  4  1  0  0  0
  2  5  1  0  0  0
  2  6  1  0  0  0
  2 49  1  0  0  0
  3  7  2  0  0  0
  3  8  1  0  0  0
  4  9  2  0  0  0
  4 50  1  0  0  0
  5 10  1  0  0  0
  6 11  1  0  0  0
  6 12  1  0  0  0
  6 51  1  0  0  0
  7 13  1  0  0  0
  7  9  1  0  0  0
  8 14  2  0  0  0
 10 15  1  0  0  0
 10 11  1  0  0  0
 10 52  1  0  0  0
 11 16  1  0  0  0
 11 53  1  0  0  0
 12 54  1  0  0  0
 13 17  2  0  0  0
 13 18  1  0  0  0
 14 17  1  0  0  0
 14 55  1  0  0  0
 15 19  1  0  0  0
 15 56  1  0  0  0
 15 57  1  0  0  0
 16 20  1  0  0  0
 18 58  1  0  0  0
 18 59  1  0  0  0
 19 21  1  0  0  0
 20 22  2  0  0  0
 20 85  1  0  0  0
 20 86  1  0  0  0
 21 23  1  0  0  0
 21 24  2  0  0  0
 21 87  1  0  0  0
 23 25  1  0  0  0
 25 26  1  0  0  0
 25 27  2  0  0  0
 25 88  1  0  0  0
 26 28  1  0  0  0
 28 29  1  0  0  0
 28 60  1  0  0  0
 28 61  1  0  0  0
 29 30  1  0  0  0
 29 31  1  0  0  0
 29 32  1  0  0  0
 30 33  1  0  0  0
 30 34  1  0  0  0
 30 62  1  0  0  0
 31 63  1  0  0  0
 31 64  1  0  0  0
 31 65  1  0  0  0
 32 66  1  0  0  0
 32 67  1  0  0  0
 32 68  1  0  0  0
 33 35  1  0  0  0
 33 36  2  0  0  0
 34 69  1  0  0  0
 35 37  1  0  0  0
 35 70  1  0  0  0
 37 38  1  0  0  0
 37 71  1  0  0  0
 37 72  1  0  0  0
 38 39  1  0  0  0
 38 73  1  0  0  0
 38 74  1  0  0  0
 39 40  1  0  0  0
 39 41  2  0  0  0
 40 42  1  0  0  0
 40 75  1  0  0  0
 42 43  1  0  0  0
 42 76  1  0  0  0
 42 77  1  0  0  0
 43 44  1  0  0  0
 43 78  1  0  0  0
 43 79  1  0  0  0
 44 45  1  0  0  0
 45 46  1  0  0  0
 45 47  2  0  0  0
 46 48  1  0  0  0
 46 80  1  0  0  0
 46 81  1  0  0  0
 48 82  1  0  0  0
 48 83  1  0  0  0
 48 84  1  0  0  0
M  CHG  4  85  -1  86  -1  87  -1  88  -1
M  END
> <i_ionizer_Ion_state_n>
30

> <i_ionizer_Tot_Q>
-4

> <s_ionizer_Ion_centers>
85_86_87_88

> <s_ionizer_Ion_types>
OM_OM_OM_OM

> <s_ionizer_Ion_ctrs_in>
22_23_26_30

> <r_ionizer_Ionization_penalty>
4.85714e-05

> <r_ionizer_Ionization_penalty_charging>
2.98356e-05

> <r_ionizer_Ionization_penalty_neutral>
1.87357e-05

> <s_st_Chirality_1>
2_R_5_1_6_49

> <s_st_Chirality_2>
6_R_12_2_11_51

> <s_st_Chirality_3>
10_R_5_11_15_52

> <s_st_Chirality_4>
11_R_16_6_10_53

> <s_st_Chirality_5>
30_R_34_33_29_62

> <i_mmod_Serial_Number-OPLS-2005>
71

> <i_i_glide_lignum>
70

> <r_i_docking_score>
-2.62536

> <r_i_glide_gscore>
-2.62536

> <r_i_glide_lipo>
-0.965462

> <r_i_glide_hbond>
-0.725768

> <r_i_glide_metal>
0

> <r_i_glide_eburp>
1.82688e-17

> <r_i_glide_evdw>
-26.2083

> <r_i_glide_ecoul>
6.23627

> <r_i_glide_erotb>
0.542732

> <r_i_glide_esite>
-0.00382732

> <r_i_glide_emodel>
-11.3168

> <r_i_glide_energy>
-19.9721

> <r_i_glide_einternal>
24.1884

> <i_i_glide_confnum>
698

> <i_i_glide_posenum>
461

$$$$
C00068
                    3D
 Structure written by MMmdl.
 42 43  0  0  1  0            999 V2000
   -1.1785    7.0210    1.8671 N   0  3  0  0  0  0
    0.1642    6.7615    1.5623 C   0  0  0  0  0  0
   -1.8397    8.3293    1.7526 C   0  0  0  0  0  0
   -1.8781    5.9596    2.2945 C   0  0  0  0  0  0
    0.4701    5.4386    1.8004 C   0  0  0  0  0  0
    1.1723    7.7548    1.0535 C   0  0  0  0  0  0
   -2.3599    8.8084    3.1013 C   0  0  0  0  0  0
   -0.9093    4.5325    2.3557 S   0  0  0  0  0  0
    1.7746    4.7300    1.6304 C   0  0  0  0  0  0
   -1.9640   10.0254    3.7066 C   0  0  0  0  0  0
   -3.2808    8.0287    3.8334 C   0  0  0  0  0  0
    2.1349    3.8375    2.8292 C   0  0  0  0  0  0
   -2.4378   10.4032    4.9109 N   0  0  0  0  0  0
   -1.0959   10.8654    3.1267 N   0  0  0  0  0  0
   -3.7510    8.4172    5.0366 N   0  0  0  0  0  0
    3.2805    3.0610    2.5359 O   0  0  0  0  0  0
   -3.3036    9.5818    5.5099 C   0  0  0  0  0  0
    3.6881    1.7130    3.5008 P   0  0  0  0  0  0
   -3.8325   10.0093    6.8627 C   0  0  0  0  0  0
    2.1755    0.9623    3.6989 O   0  0  0  0  0  0
    4.5666    0.8352    2.6940 O   0  0  0  0  0  0
    1.0936   -0.3985    3.2945 P   0  0  0  0  0  0
    0.5302   -0.7923    4.6786 O   0  0  0  0  0  0
   -1.1284    9.0327    1.3192 H   0  0  0  0  0  0
   -2.6632    8.2593    1.0427 H   0  0  0  0  0  0
   -2.9186    5.9789    2.5636 H   0  0  0  0  0  0
    1.6445    8.2900    1.8774 H   0  0  0  0  0  0
    1.9621    7.2748    0.4758 H   0  0  0  0  0  0
    0.7184    8.4942    0.3952 H   0  0  0  0  0  0
    1.7796    4.1368    0.7163 H   0  0  0  0  0  0
    2.5467    5.4802    1.4715 H   0  0  0  0  0  0
   -3.6406    7.0835    3.4557 H   0  0  0  0  0  0
    2.3552    4.4511    3.7039 H   0  0  0  0  0  0
    1.2985    3.1942    3.1024 H   0  0  0  0  0  0
   -0.8998   11.7611    3.5496 H   0  0  0  0  0  0
   -0.7974   10.7387    2.1714 H   0  0  0  0  0  0
   -3.5417    9.2877    7.6265 H   0  0  0  0  0  0
   -3.4445   10.9867    7.1527 H   0  0  0  0  0  0
   -4.9210   10.0686    6.8420 H   0  0  0  0  0  0
    4.1552    2.2183    4.8114 O   0  5  0  0  0  0
    0.0947    0.2426    2.3056 O   0  5  0  0  0  0
    2.0922   -1.4088    2.6831 O   0  5  0  0  0  0
  1  2  1  0  0  0
  1  3  1  0  0  0
  1  4  2  0  0  0
  2  5  2  0  0  0
  2  6  1  0  0  0
  3  7  1  0  0  0
  3 24  1  0  0  0
  3 25  1  0  0  0
  4  8  1  0  0  0
  4 26  1  0  0  0
  5  9  1  0  0  0
  5  8  1  0  0  0
  6 27  1  0  0  0
  6 28  1  0  0  0
  6 29  1  0  0  0
  7 10  2  0  0  0
  7 11  1  0  0  0
  9 12  1  0  0  0
  9 30  1  0  0  0
  9 31  1  0  0  0
 10 13  1  0  0  0
 10 14  1  0  0  0
 11 15  2  0  0  0
 11 32  1  0  0  0
 12 16  1  0  0  0
 12 33  1  0  0  0
 12 34  1  0  0  0
 13 17  2  0  0  0
 14 35  1  0  0  0
 14 36  1  0  0  0
 15 17  1  0  0  0
 16 18  1  0  0  0
 17 19  1  0  0  0
 18 20  1  0  0  0
 18 21  2  0  0  0
 18 40  1  0  0  0
 19 37  1  0  0  0
 19 38  1  0  0  0
 19 39  1  0  0  0
 20 22  1  0  0  0
 22 23  2  0  0  0
 22 41  1  0  0  0
 22 42  1  0  0  0
M  CHG  4   1   1  40  -1  41  -1  42  -1
M  END
> <i_ionizer_Ion_state_n>
7

> <i_ionizer_Tot_Q>
-2

> <s_ionizer_Ion_centers>
40_41_42

> <s_ionizer_Ion_types>
OM_OM_OM

> <s_ionizer_Ion_ctrs_in>
21_24_25

> <r_ionizer_Ionization_penalty>
2.23767e-05

> <r_ionizer_Ionization_penalty_charging>
2.23767e-05

> <r_ionizer_Ionization_penalty_neutral>
0

> <i_mmod_Serial_Number-OPLS-2005>
48

> <i_i_glide_lignum>
47

> <r_i_docking_score>
-2.62142

> <r_i_glide_gscore>
-2.62142

> <r_i_glide_lipo>
-0.839174

> <r_i_glide_hbond>
-0.535389

> <r_i_glide_metal>
0

> <r_i_glide_eburp>
-0.58867

> <r_i_glide_evdw>
-21.5379

> <r_i_glide_ecoul>
-7.97066

> <r_i_glide_erotb>
0.888635

> <r_i_glide_esite>
0.97328

> <r_i_glide_emodel>
-59.7902

> <r_i_glide_energy>
-29.5086

> <r_i_glide_einternal>
3.71608

> <i_i_glide_confnum>
28

> <i_i_glide_posenum>
431

$$$$
C01120
                    3D
 Structure written by MMmdl.
 64 63  0  0  1  0            999 V2000
    3.1678    2.7057    3.5091 C   0  0  1  0  0  0
    3.2369    2.8150    1.9632 C   0  0  1  0  0  0
    2.6091    1.3515    4.0086 C   0  0  0  0  0  0
    3.2439    4.2643    1.4192 C   0  0  0  0  0  0
    4.4397    2.1979    1.5363 O   0  0  0  0  0  0
    1.3352    1.0347    3.4610 O   0  0  0  0  0  0
    1.9232    5.0388    1.6035 C   0  0  0  0  0  0
    0.9227   -0.6990    3.2386 P   0  0  0  0  0  0
    1.6287    6.0461    0.4795 C   0  0  0  0  0  0
   -0.1988   -0.6397    2.1779 O   0  0  0  0  0  0
    0.1937    6.5895    0.5392 C   0  0  0  0  0  0
   -0.1035    7.3267    1.8531 C   0  0  0  0  0  0
   -1.5897    7.6809    2.0075 C   0  0  0  0  0  0
   -1.9090    8.3019    3.3752 C   0  0  0  0  0  0
   -3.4170    8.3572    3.6603 C   0  0  0  0  0  0
   -3.7423    9.0782    4.9765 C   0  0  0  0  0  0
   -5.2397    9.3834    5.1274 C   0  0  0  0  0  0
   -5.5705   10.0682    6.4615 C   0  0  0  0  0  0
   -7.0362   10.5187    6.5457 C   0  0  0  0  0  0
   -7.3858   11.1374    7.9071 C   0  0  0  0  0  0
   -7.2960   10.1232    9.0564 C   0  0  0  0  0  0
   -7.7181   10.7209   10.4032 C   0  0  0  0  0  0
    2.5259    3.5033    3.8858 H   0  0  0  0  0  0
    2.4000    2.2631    1.5344 H   0  0  0  0  0  0
    3.2492    0.5338    3.6870 H   0  0  0  0  0  0
    2.6000    1.3004    5.0976 H   0  0  0  0  0  0
    4.4328    2.9830    5.0770 H   0  0  0  0  0  0
    5.1111    2.1376    3.8343 H   0  0  0  0  0  0
    4.0295    4.8472    1.8968 H   0  0  0  0  0  0
    3.4935    4.2450    0.3575 H   0  0  0  0  0  0
    4.3806    1.2693    1.7048 H   0  0  0  0  0  0
    1.1083    4.3151    1.6430 H   0  0  0  0  0  0
    1.9127    5.5470    2.5681 H   0  0  0  0  0  0
    2.3263    6.8816    0.5392 H   0  0  0  0  0  0
    1.7957    5.5709   -0.4879 H   0  0  0  0  0  0
    0.0258    7.2646   -0.3009 H   0  0  0  0  0  0
   -0.5108    5.7654    0.4186 H   0  0  0  0  0  0
    0.2110    6.7085    2.6949 H   0  0  0  0  0  0
    0.4932    8.2386    1.9000 H   0  0  0  0  0  0
   -1.8810    8.3744    1.2176 H   0  0  0  0  0  0
   -2.1928    6.7828    1.8675 H   0  0  0  0  0  0
   -1.4129    7.7277    4.1587 H   0  0  0  0  0  0
   -1.4942    9.3096    3.4215 H   0  0  0  0  0  0
   -3.9234    8.8612    2.8361 H   0  0  0  0  0  0
   -3.8169    7.3430    3.6942 H   0  0  0  0  0  0
   -3.4106    8.4664    5.8165 H   0  0  0  0  0  0
   -3.1756   10.0087    5.0297 H   0  0  0  0  0  0
   -5.5648   10.0195    4.3031 H   0  0  0  0  0  0
   -5.8086    8.4564    5.0449 H   0  0  0  0  0  0
   -5.3537    9.3846    7.2834 H   0  0  0  0  0  0
   -4.9177   10.9313    6.5976 H   0  0  0  0  0  0
   -7.2387   11.2430    5.7557 H   0  0  0  0  0  0
   -7.6891    9.6655    6.3569 H   0  0  0  0  0  0
   -6.7149   11.9735    8.1084 H   0  0  0  0  0  0
   -8.3936   11.5528    7.8685 H   0  0  0  0  0  0
   -7.9252    9.2607    8.8338 H   0  0  0  0  0  0
   -6.2749    9.7481    9.1349 H   0  0  0  0  0  0
   -7.6438    9.9784   11.1980 H   0  0  0  0  0  0
   -7.0837   11.5646   10.6760 H   0  0  0  0  0  0
   -8.7497   11.0725   10.3721 H   0  0  0  0  0  0
    4.5169    2.9210    4.0633 N   0  3  0  0  0  0
    4.9044    3.7768    3.6950 H   0  0  0  0  0  0
    2.2707   -1.2607    2.7330 O   0  5  0  0  0  0
    0.5001   -1.1067    4.6652 O   0  5  0  0  0  0
  1  2  1  0  0  0
  1  3  1  0  0  0
  1 23  1  0  0  0
  1 61  1  0  0  0
  2  4  1  0  0  0
  2  5  1  0  0  0
  2 24  1  0  0  0
  3  6  1  0  0  0
  3 25  1  0  0  0
  3 26  1  0  0  0
  4  7  1  0  0  0
  4 29  1  0  0  0
  4 30  1  0  0  0
  5 31  1  0  0  0
  6  8  1  0  0  0
  7  9  1  0  0  0
  7 32  1  0  0  0
  7 33  1  0  0  0
  8 10  2  0  0  0
  8 63  1  0  0  0
  8 64  1  0  0  0
  9 11  1  0  0  0
  9 34  1  0  0  0
  9 35  1  0  0  0
 11 12  1  0  0  0
 11 36  1  0  0  0
 11 37  1  0  0  0
 12 13  1  0  0  0
 12 38  1  0  0  0
 12 39  1  0  0  0
 13 14  1  0  0  0
 13 40  1  0  0  0
 13 41  1  0  0  0
 14 15  1  0  0  0
 14 42  1  0  0  0
 14 43  1  0  0  0
 15 16  1  0  0  0
 15 44  1  0  0  0
 15 45  1  0  0  0
 16 17  1  0  0  0
 16 46  1  0  0  0
 16 47  1  0  0  0
 17 18  1  0  0  0
 17 48  1  0  0  0
 17 49  1  0  0  0
 18 19  1  0  0  0
 18 50  1  0  0  0
 18 51  1  0  0  0
 19 20  1  0  0  0
 19 52  1  0  0  0
 19 53  1  0  0  0
 20 21  1  0  0  0
 20 54  1  0  0  0
 20 55  1  0  0  0
 21 22  1  0  0  0
 21 56  1  0  0  0
 21 57  1  0  0  0
 22 58  1  0  0  0
 22 59  1  0  0  0
 22 60  1  0  0  0
 27 61  1  0  0  0
 28 61  1  0  0  0
 61 62  1  0  0  0
M  CHG  3  61   1  63  -1  64  -1
M  END
> <i_ionizer_Ion_state_n>
7

> <i_ionizer_Tot_Q>
-1

> <s_ionizer_Ion_centers>
61_63_64

> <s_ionizer_Ion_types>
N5_OM_OM

> <s_ionizer_Ion_ctrs_in>
4_11_12

> <r_ionizer_Ionization_penalty>
0.000202249

> <r_ionizer_Ionization_penalty_charging>
0.000202249

> <r_ionizer_Ionization_penalty_neutral>
0

> <s_st_Chirality_1>
1_R_61_2_3_23

> <s_st_Chirality_2>
2_R_5_1_4_24

> <i_mmod_Serial_Number-OPLS-2005>
397

> <i_i_glide_lignum>
393

> <r_i_docking_score>
-2.57728

> <r_i_glide_gscore>
-2.57728

> <r_i_glide_lipo>
-1.07757

> <r_i_glide_hbond>
-0.553593

> <r_i_glide_metal>
0

> <r_i_glide_eburp>
-0.905386

> <r_i_glide_evdw>
-28.5462

> <r_i_glide_ecoul>
-3.98284

> <r_i_glide_erotb>
2.45049

> <r_i_glide_esite>
0.190766

> <r_i_glide_emodel>
-45.0973

> <r_i_glide_energy>
-32.5291

> <r_i_glide_einternal>
14.4762

> <i_i_glide_confnum>
780

> <i_i_glide_posenum>
591

$$$$
C00307
                    3D
 Structure written by MMmdl.
 56 57  0  0  1  0            999 V2000
   -1.8898    7.0191    1.7607 C   0  0  2  0  0  0
   -2.2427    7.6914    3.0671 N   0  0  0  0  0  0
   -1.2404    5.8134    2.0397 O   0  0  0  0  0  0
   -0.9312    7.9026    0.9494 C   0  0  1  0  0  0
   -1.3660    7.5526    4.1681 C   0  0  0  0  0  0
   -3.4224    8.4079    3.2116 C   0  0  0  0  0  0
   -0.0097    5.7362    1.3256 C   0  0  1  0  0  0
    0.4042    7.2023    1.1637 C   0  0  1  0  0  0
   -1.3007    7.9303   -0.4166 O   0  0  0  0  0  0
   -1.7233    8.1701    5.3367 N   0  0  0  0  0  0
   -0.3271    6.8983    4.0927 O   0  0  0  0  0  0
   -3.7606    9.0089    4.3734 C   0  0  0  0  0  0
    0.9746    4.8471    2.1137 C   0  0  0  0  0  0
    1.3013    7.4409    0.0950 O   0  0  0  0  0  0
   -2.8358    8.8641    5.4748 C   0  0  0  0  0  0
    1.8631    4.1121    1.2883 O   0  0  0  0  0  0
   -3.0969    9.4321    6.6598 N   0  0  0  0  0  0
    2.7956    2.8110    1.8714 P   0  0  0  0  0  0
    1.6639    1.5927    2.2375 O   0  0  0  0  0  0
    3.6381    2.3238    0.7544 O   0  0  0  0  0  0
    1.7180   -0.0487    2.6932 P   0  0  0  0  0  0
    2.9298   -0.7503    1.7236 O   0  0  0  0  0  0
    2.1619   -0.1355    4.1032 O   0  0  0  0  0  0
    4.1873   -0.1303    1.5469 C   0  0  0  0  0  0
    4.9303   -0.8460    0.4006 C   0  0  0  0  0  0
    6.2931   -0.3180    0.0801 N   0  3  0  0  0  0
    6.7732   -0.9936   -1.1539 C   0  0  0  0  0  0
    6.2593    1.1466   -0.1740 C   0  0  0  0  0  0
    7.2522   -0.6077    1.1787 C   0  0  0  0  0  0
   -2.8328    6.8066    1.2539 H   0  0  0  0  0  0
   -0.9166    8.9268    1.3250 H   0  0  0  0  0  0
   -4.1054    8.4998    2.3797 H   0  0  0  0  0  0
   -0.2439    5.3001    0.3558 H   0  0  0  0  0  0
    0.8514    7.5640    2.0905 H   0  0  0  0  0  0
   -1.9826    8.5794   -0.5131 H   0  0  0  0  0  0
   -4.6856    9.5632    4.4410 H   0  0  0  0  0  0
    1.5439    5.4285    2.8395 H   0  0  0  0  0  0
    0.4162    4.1111    2.6926 H   0  0  0  0  0  0
    0.8040    7.4587   -0.7174 H   0  0  0  0  0  0
   -3.9413    9.9689    6.7931 H   0  0  0  0  0  0
   -2.4410    9.3199    7.4193 H   0  0  0  0  0  0
    4.0446    0.9289    1.3370 H   0  0  0  0  0  0
    4.7282   -0.2049    2.4897 H   0  0  0  0  0  0
    5.0100   -1.9025    0.6617 H   0  0  0  0  0  0
    4.3139   -0.8118   -0.4986 H   0  0  0  0  0  0
    7.7628   -0.6375   -1.4444 H   0  0  0  0  0  0
    6.8410   -2.0737   -1.0143 H   0  0  0  0  0  0
    6.0989   -0.8099   -1.9921 H   0  0  0  0  0  0
    7.2455    1.5155   -0.4599 H   0  0  0  0  0  0
    5.5741    1.3900   -0.9866 H   0  0  0  0  0  0
    5.9518    1.7121    0.7052 H   0  0  0  0  0  0
    8.2692   -0.3344    0.8932 H   0  0  0  0  0  0
    7.0167   -0.0460    2.0831 H   0  0  0  0  0  0
    7.2536   -1.6690    1.4314 H   0  0  0  0  0  0
    3.4490    3.2490    3.1242 O   0  5  0  0  0  0
    0.4303   -0.6653    2.3033 O   0  5  0  0  0  0
  1  2  1  0  0  0
  1  3  1  0  0  0
  1  4  1  0  0  0
  1 30  1  0  0  0
  2  5  1  0  0  0
  2  6  1  0  0  0
  3  7  1  0  0  0
  4  8  1  0  0  0
  4  9  1  0  0  0
  4 31  1  0  0  0
  5 10  1  0  0  0
  5 11  2  0  0  0
  6 12  2  0  0  0
  6 32  1  0  0  0
  7 13  1  0  0  0
  7  8  1  0  0  0
  7 33  1  0  0  0
  8 14  1  0  0  0
  8 34  1  0  0  0
  9 35  1  0  0  0
 10 15  2  0  0  0
 12 15  1  0  0  0
 12 36  1  0  0  0
 13 16  1  0  0  0
 13 37  1  0  0  0
 13 38  1  0  0  0
 14 39  1  0  0  0
 15 17  1  0  0  0
 16 18  1  0  0  0
 17 40  1  0  0  0
 17 41  1  0  0  0
 18 19  1  0  0  0
 18 20  2  0  0  0
 18 55  1  0  0  0
 19 21  1  0  0  0
 21 22  1  0  0  0
 21 23  2  0  0  0
 21 56  1  0  0  0
 22 24  1  0  0  0
 24 25  1  0  0  0
 24 42  1  0  0  0
 24 43  1  0  0  0
 25 26  1  0  0  0
 25 44  1  0  0  0
 25 45  1  0  0  0
 26 27  1  0  0  0
 26 28  1  0  0  0
 26 29  1  0  0  0
 27 46  1  0  0  0
 27 47  1  0  0  0
 27 48  1  0  0  0
 28 49  1  0  0  0
 28 50  1  0  0  0
 28 51  1  0  0  0
 29 52  1  0  0  0
 29 53  1  0  0  0
 29 54  1  0  0  0
M  CHG  3  26   1  55  -1  56  -1
M  END
> <i_ionizer_Ion_state_n>
3

> <i_ionizer_Tot_Q>
-1

> <s_ionizer_Ion_centers>
55_56

> <s_ionizer_Ion_types>
OM_OM

> <s_ionizer_Ion_ctrs_in>
20_24

> <r_ionizer_Ionization_penalty>
1.49178e-05

> <r_ionizer_Ionization_penalty_charging>
1.49178e-05

> <r_ionizer_Ionization_penalty_neutral>
0

> <s_st_Chirality_1>
1_R_3_2_4_30

> <s_st_Chirality_2>
4_R_9_1_8_31

> <s_st_Chirality_3>
7_R_3_8_13_33

> <s_st_Chirality_4>
8_R_14_4_7_34

> <i_mmod_Serial_Number-OPLS-2005>
185

> <i_i_glide_lignum>
183

> <r_i_docking_score>
-2.57031

> <r_i_glide_gscore>
-2.57031

> <r_i_glide_lipo>
-1.04367

> <r_i_glide_hbond>
0

> <r_i_glide_metal>
0

> <r_i_glide_eburp>
-0.0960367

> <r_i_glide_evdw>
-27.6228

> <r_i_glide_ecoul>
-2.75487

> <r_i_glide_erotb>
0.880453

> <r_i_glide_esite>
0.174254

> <r_i_glide_emodel>
-74.346

> <r_i_glide_energy>
-30.3777

> <r_i_glide_einternal>
7.33204

> <i_i_glide_confnum>
261

> <i_i_glide_posenum>
459

$$$$
C04373
                    3D
 Structure written by MMmdl.
 51 54  0  0  1  0            999 V2000
    2.3794    4.5079    1.9315 C   0  0  2  0  0  0
    2.0011    3.0562    2.3591 C   0  0  1  0  0  0
    1.0857    5.2589    1.5584 C   0  0  1  0  0  0
    3.3659    4.4677    0.7551 C   0  0  0  0  0  0
    3.2441    2.1660    2.7233 C   0  0  2  0  0  0
    0.8648    3.0327    3.4297 C   0  0  0  0  0  0
    0.0871    5.3381    2.7243 C   0  0  2  0  0  0
    1.1434    6.6825    0.9847 C   0  0  0  0  0  0
    4.6334    3.7043    1.1399 C   0  0  0  0  0  0
    4.3453    2.2637    1.6077 C   0  0  2  0  0  0
    2.7662    0.6828    2.8621 C   0  0  0  0  0  0
    3.8822    2.6046    4.0653 C   0  0  0  0  0  0
   -0.3594    3.9033    3.0606 C   0  0  0  0  0  0
   -0.9650    6.2358    2.0804 C   0  0  0  0  0  0
    0.6129    6.0748    3.9854 C   0  0  0  0  0  0
   -0.3204    7.1652    1.0536 C   0  0  0  0  0  0
    4.0624    1.2964    0.4418 C   0  0  0  0  0  0
    3.8021   -0.3530    2.3988 C   0  0  0  0  0  0
   -2.1637    6.2242    2.3547 O   0  0  0  0  0  0
    4.1571   -0.1735    0.9067 C   0  0  1  0  0  0
    3.3046   -0.9635    0.1032 O   0  0  0  0  0  0
    2.8675    5.0249    2.7563 H   0  0  0  0  0  0
    1.5568    2.6068    1.4695 H   0  0  0  0  0  0
    0.6265    4.6596    0.7667 H   0  0  0  0  0  0
    5.2903    1.9203    2.0324 H   0  0  0  0  0  0
    2.9007    4.0041   -0.1157 H   0  0  0  0  0  0
    3.6383    5.4805    0.4574 H   0  0  0  0  0  0
    0.5195    2.0121    3.5921 H   0  0  0  0  0  0
    1.2462    3.3660    4.3927 H   0  0  0  0  0  0
    1.7906    7.3208    1.5874 H   0  0  0  0  0  0
    1.5245    6.6952   -0.0368 H   0  0  0  0  0  0
    5.3293    3.6950    0.3004 H   0  0  0  0  0  0
    5.1428    4.2477    1.9364 H   0  0  0  0  0  0
    2.4672    0.4695    3.8890 H   0  0  0  0  0  0
    1.8692    0.5152    2.2644 H   0  0  0  0  0  0
    4.7666    2.0091    4.2937 H   0  0  0  0  0  0
    4.1937    3.6483    4.0520 H   0  0  0  0  0  0
    3.2041    2.4786    4.9082 H   0  0  0  0  0  0
   -0.8796    3.4589    2.2106 H   0  0  0  0  0  0
   -1.0732    3.9084    3.8853 H   0  0  0  0  0  0
   -0.1446    6.0836    4.7701 H   0  0  0  0  0  0
    1.4992    5.6085    4.4117 H   0  0  0  0  0  0
    0.8728    7.1147    3.7839 H   0  0  0  0  0  0
   -0.3963    8.2096    1.3567 H   0  0  0  0  0  0
   -0.8230    7.0415    0.0939 H   0  0  0  0  0  0
    3.0715    1.5062    0.0370 H   0  0  0  0  0  0
    4.7614    1.4585   -0.3794 H   0  0  0  0  0  0
    4.7031   -0.2359    3.0023 H   0  0  0  0  0  0
    3.4475   -1.3660    2.5932 H   0  0  0  0  0  0
    5.1742   -0.5361    0.7527 H   0  0  0  0  0  0
    3.5660   -0.8669   -0.7998 H   0  0  0  0  0  0
  1  2  1  0  0  0
  1  3  1  0  0  0
  1  4  1  0  0  0
  1 22  1  0  0  0
  2  5  1  0  0  0
  2  6  1  0  0  0
  2 23  1  0  0  0
  3  7  1  0  0  0
  3  8  1  0  0  0
  3 24  1  0  0  0
  4  9  1  0  0  0
  4 26  1  0  0  0
  4 27  1  0  0  0
  5 10  1  0  0  0
  5 11  1  0  0  0
  5 12  1  0  0  0
  6 13  1  0  0  0
  6 28  1  0  0  0
  6 29  1  0  0  0
  7 14  1  0  0  0
  7 15  1  0  0  0
  7 13  1  0  0  0
  8 16  1  0  0  0
  8 30  1  0  0  0
  8 31  1  0  0  0
  9 10  1  0  0  0
  9 32  1  0  0  0
  9 33  1  0  0  0
 10 17  1  0  0  0
 10 25  1  0  0  0
 11 18  1  0  0  0
 11 34  1  0  0  0
 11 35  1  0  0  0
 12 36  1  0  0  0
 12 37  1  0  0  0
 12 38  1  0  0  0
 13 39  1  0  0  0
 13 40  1  0  0  0
 14 19  2  0  0  0
 14 16  1  0  0  0
 15 41  1  0  0  0
 15 42  1  0  0  0
 15 43  1  0  0  0
 16 44  1  0  0  0
 16 45  1  0  0  0
 17 20  1  0  0  0
 17 46  1  0  0  0
 17 47  1  0  0  0
 18 20  1  0  0  0
 18 48  1  0  0  0
 18 49  1  0  0  0
 20 21  1  0  0  0
 20 50  1  0  0  0
 21 51  1  0  0  0
M  END
> <i_ionizer_Ion_state_n>
0

> <i_ionizer_Tot_Q>
0

> <s_ionizer_Ion_centers>


> <s_ionizer_Ion_types>


> <s_ionizer_Ion_ctrs_in>


> <r_ionizer_Ionization_penalty>
0

> <r_ionizer_Ionization_penalty_charging>
0

> <r_ionizer_Ionization_penalty_neutral>
0

> <s_st_Chirality_1>
1_R_3_2_4_22

> <s_st_Chirality_2>
2_S_5_1_6_23

> <s_st_Chirality_3>
3_S_7_1_8_24

> <s_st_Chirality_4>
5_S_2_10_11_12

> <s_st_Chirality_5>
7_S_14_3_13_15

> <s_st_Chirality_6>
10_R_5_17_9_25

> <s_st_Chirality_7>
20_R_21_17_18_50

> <i_mmod_Serial_Number-OPLS-2005>
591

> <i_i_glide_lignum>
585

> <r_i_docking_score>
-2.56338

> <r_i_glide_gscore>
-2.56338

> <r_i_glide_lipo>
-1.60596

> <r_i_glide_hbond>
-0.453494

> <r_i_glide_metal>
0

> <r_i_glide_eburp>
-1.5875

> <r_i_glide_evdw>
21.2633

> <r_i_glide_ecoul>
-2.15093

> <r_i_glide_erotb>
0

> <r_i_glide_esite>
-0.402395

> <r_i_glide_emodel>
17.873

> <r_i_glide_energy>
19.1124

> <r_i_glide_einternal>
0.396467

> <i_i_glide_confnum>
1

> <i_i_glide_posenum>
391

$$$$
C00836
                    3D
 Structure written by MMmdl.
 61 60  0  0  1  0            999 V2000
    4.1560   -0.1281    1.3882 C   0  0  0  0  0  0
    4.6662    1.2919    1.0906 C   0  0  0  0  0  0
    2.9498   -0.1536    2.3517 C   0  0  2  0  0  0
    3.5359    2.2522    0.6922 C   0  0  0  0  0  0
    3.1563    0.6484    3.6602 C   0  0  1  0  0  0
    2.6464   -1.4961    2.6773 O   0  0  0  0  0  0
    3.8276    3.7051    1.0950 C   0  0  0  0  0  0
    1.9059    0.7151    4.5597 C   0  0  0  0  0  0
    2.7525    4.6822    0.5974 C   0  0  0  0  0  0
    0.8673    1.3916    3.8820 O   0  0  0  0  0  0
    3.1041    6.1472    0.8945 C   0  0  0  0  0  0
    1.9006    7.0872    0.7325 C   0  0  0  0  0  0
    0.6558    6.5855    1.4788 C   0  0  0  0  0  0
   -0.4087    7.6786    1.6516 C   0  0  0  0  0  0
   -1.4586    7.3170    2.7123 C   0  0  0  0  0  0
   -2.4104    8.4818    3.0212 C   0  0  0  0  0  0
   -3.4140    8.1444    4.1335 C   0  0  0  0  0  0
   -4.3512    9.3169    4.4579 C   0  0  0  0  0  0
   -5.4330    8.9419    5.4810 C   0  0  0  0  0  0
   -6.3953   10.0989    5.7710 C   0  0  0  0  0  0
    3.8976   -0.6224    0.4507 H   0  0  0  0  0  0
    4.9765   -0.7025    1.8189 H   0  0  0  0  0  0
    5.1813    1.6879    1.9666 H   0  0  0  0  0  0
    5.4059    1.2524    0.2900 H   0  0  0  0  0  0
    2.0772    0.2482    1.8342 H   0  0  0  0  0  0
    3.3777    2.2002   -0.3857 H   0  0  0  0  0  0
    2.6041    1.9278    1.1572 H   0  0  0  0  0  0
    3.4323    1.6676    3.3838 H   0  0  0  0  0  0
    3.3321   -1.8437    3.2277 H   0  0  0  0  0  0
    3.9031    3.7720    2.1811 H   0  0  0  0  0  0
    4.7993    4.0032    0.6992 H   0  0  0  0  0  0
    1.5554   -0.2875    4.8072 H   0  0  0  0  0  0
    2.1137    1.2270    5.4999 H   0  0  0  0  0  0
    4.4243    0.6720    5.2516 H   0  0  0  0  0  0
    5.1370    0.1500    3.8560 H   0  0  0  0  0  0
    2.6146    4.5534   -0.4769 H   0  0  0  0  0  0
    1.7968    4.4375    1.0628 H   0  0  0  0  0  0
    1.2158    2.1896    3.5122 H   0  0  0  0  0  0
    3.4927    6.2279    1.9105 H   0  0  0  0  0  0
    3.9074    6.4691    0.2305 H   0  0  0  0  0  0
    2.1652    8.0809    1.0960 H   0  0  0  0  0  0
    1.6675    7.1982   -0.3273 H   0  0  0  0  0  0
    0.2246    5.7418    0.9383 H   0  0  0  0  0  0
    0.9489    6.2068    2.4589 H   0  0  0  0  0  0
    0.0759    8.6164    1.9263 H   0  0  0  0  0  0
   -0.9047    7.8558    0.6964 H   0  0  0  0  0  0
   -2.0368    6.4571    2.3717 H   0  0  0  0  0  0
   -0.9557    7.0070    3.6292 H   0  0  0  0  0  0
   -1.8290    9.3579    3.3113 H   0  0  0  0  0  0
   -2.9523    8.7571    2.1155 H   0  0  0  0  0  0
   -4.0067    7.2783    3.8363 H   0  0  0  0  0  0
   -2.8724    7.8533    5.0344 H   0  0  0  0  0  0
   -3.7657   10.1540    4.8403 H   0  0  0  0  0  0
   -4.8261    9.6663    3.5402 H   0  0  0  0  0  0
   -6.0013    8.0857    5.1159 H   0  0  0  0  0  0
   -4.9621    8.6250    6.4124 H   0  0  0  0  0  0
   -7.1504    9.8028    6.4995 H   0  0  0  0  0  0
   -5.8642   10.9614    6.1746 H   0  0  0  0  0  0
   -6.9134   10.4168    4.8658 H   0  0  0  0  0  0
    4.3003    0.1111    4.4200 N   0  3  0  0  0  0
    4.1125   -0.8444    4.6869 H   0  0  0  0  0  0
  1  2  1  0  0  0
  1  3  1  0  0  0
  1 21  1  0  0  0
  1 22  1  0  0  0
  2  4  1  0  0  0
  2 23  1  0  0  0
  2 24  1  0  0  0
  3  5  1  0  0  0
  3  6  1  0  0  0
  3 25  1  0  0  0
  4  7  1  0  0  0
  4 26  1  0  0  0
  4 27  1  0  0  0
  5  8  1  0  0  0
  5 28  1  0  0  0
  5 60  1  0  0  0
  6 29  1  0  0  0
  7  9  1  0  0  0
  7 30  1  0  0  0
  7 31  1  0  0  0
  8 10  1  0  0  0
  8 32  1  0  0  0
  8 33  1  0  0  0
  9 11  1  0  0  0
  9 36  1  0  0  0
  9 37  1  0  0  0
 10 38  1  0  0  0
 11 12  1  0  0  0
 11 39  1  0  0  0
 11 40  1  0  0  0
 12 13  1  0  0  0
 12 41  1  0  0  0
 12 42  1  0  0  0
 13 14  1  0  0  0
 13 43  1  0  0  0
 13 44  1  0  0  0
 14 15  1  0  0  0
 14 45  1  0  0  0
 14 46  1  0  0  0
 15 16  1  0  0  0
 15 47  1  0  0  0
 15 48  1  0  0  0
 16 17  1  0  0  0
 16 49  1  0  0  0
 16 50  1  0  0  0
 17 18  1  0  0  0
 17 51  1  0  0  0
 17 52  1  0  0  0
 18 19  1  0  0  0
 18 53  1  0  0  0
 18 54  1  0  0  0
 19 20  1  0  0  0
 19 55  1  0  0  0
 19 56  1  0  0  0
 20 57  1  0  0  0
 20 58  1  0  0  0
 20 59  1  0  0  0
 34 60  1  0  0  0
 35 60  1  0  0  0
 60 61  1  0  0  0
M  CHG  1  60   1
M  END
> <i_ionizer_Ion_state_n>
1

> <i_ionizer_Tot_Q>
1

> <s_ionizer_Ion_centers>
60

> <s_ionizer_Ion_types>
N5

> <s_ionizer_Ion_ctrs_in>
9

> <r_ionizer_Ionization_penalty>
0.000187331

> <r_ionizer_Ionization_penalty_charging>
0.000187331

> <r_ionizer_Ionization_penalty_neutral>
0

> <s_st_Chirality_1>
3_R_6_5_1_25

> <s_st_Chirality_2>
5_R_60_3_8_28

> <i_mmod_Serial_Number-OPLS-2005>
344

> <i_i_glide_lignum>
341

> <r_i_docking_score>
-2.54404

> <r_i_glide_gscore>
-2.54404

> <r_i_glide_lipo>
-1.27493

> <r_i_glide_hbond>
-0.446642

> <r_i_glide_metal>
0

> <r_i_glide_eburp>
-1.49602

> <r_i_glide_evdw>
-26.9533

> <r_i_glide_ecoul>
-7.90733

> <r_i_glide_erotb>
3.44902

> <r_i_glide_esite>
0.17153

> <r_i_glide_emodel>
-46.3756

> <r_i_glide_energy>
-34.8606

> <r_i_glide_einternal>
10.2327

> <i_i_glide_confnum>
583

> <i_i_glide_posenum>
2

$$$$
C00280
                    3D
 Structure written by MMmdl.
 47 50  0  0  1  0            999 V2000
    2.0026    3.0876    3.0932 C   0  0  2  0  0  0
    2.0184    3.4239    1.5717 C   0  0  1  0  0  0
    1.9005    1.5587    3.2118 C   0  0  1  0  0  0
    0.9162    3.8711    3.8640 C   0  0  0  0  0  0
    1.9139    4.9545    1.3279 C   0  0  2  0  0  0
    3.1844    2.7009    0.8475 C   0  0  0  0  0  0
    3.1272    0.8667    2.5964 C   0  0  2  0  0  0
    1.7125    0.8814    4.5755 C   0  0  0  0  0  0
   -0.0925    4.5878    2.9561 C   0  0  0  0  0  0
    0.5542    5.4337    1.8638 C   0  0  0  0  0  0
    1.9963    5.2846   -0.1821 C   0  0  0  0  0  0
    3.0555    5.6998    2.0562 C   0  0  0  0  0  0
    3.1620    1.1720    1.0887 C   0  0  0  0  0  0
    2.8120   -0.5701    2.9892 C   0  0  0  0  0  0
    4.4743    1.2421    3.2575 C   0  0  0  0  0  0
    2.0041   -0.6041    4.2848 C   0  0  0  0  0  0
   -0.1369    6.4542    1.3146 C   0  0  0  0  0  0
    1.6737    6.7556   -0.4998 C   0  0  0  0  0  0
    3.1638   -1.5664    2.3603 O   0  0  0  0  0  0
    0.3639    7.2034    0.1505 C   0  0  0  0  0  0
   -0.2295    8.1760   -0.3106 O   0  0  0  0  0  0
    2.9521    3.3902    3.5316 H   0  0  0  0  0  0
    1.1120    2.9938    1.1425 H   0  0  0  0  0  0
    1.0261    1.2720    2.6234 H   0  0  0  0  0  0
    0.3862    3.2207    4.5587 H   0  0  0  0  0  0
    1.4080    4.6217    4.4830 H   0  0  0  0  0  0
    3.1313    2.8803   -0.2258 H   0  0  0  0  0  0
    4.1366    3.1136    1.1794 H   0  0  0  0  0  0
    2.4201    1.2756    5.3054 H   0  0  0  0  0  0
    0.7062    1.0258    4.9687 H   0  0  0  0  0  0
   -0.7129    3.8372    2.4657 H   0  0  0  0  0  0
   -0.7659    5.2058    3.5506 H   0  0  0  0  0  0
    2.9893    5.0503   -0.5657 H   0  0  0  0  0  0
    1.3000    4.6468   -0.7282 H   0  0  0  0  0  0
    2.9914    6.7763    1.9005 H   0  0  0  0  0  0
    3.0301    5.5400    3.1331 H   0  0  0  0  0  0
    4.0314    5.3743    1.6962 H   0  0  0  0  0  0
    2.2865    0.7395    0.6031 H   0  0  0  0  0  0
    4.0344    0.7087    0.6272 H   0  0  0  0  0  0
    4.7050    2.3012    3.1531 H   0  0  0  0  0  0
    5.2944    0.6898    2.7976 H   0  0  0  0  0  0
    4.4843    1.0105    4.3228 H   0  0  0  0  0  0
    2.5613   -1.0793    5.0921 H   0  0  0  0  0  0
    1.0822   -1.1613    4.1174 H   0  0  0  0  0  0
   -1.1133    6.7180    1.6942 H   0  0  0  0  0  0
    2.4742    7.4060   -0.1482 H   0  0  0  0  0  0
    1.6058    6.8968   -1.5786 H   0  0  0  0  0  0
  1  2  1  0  0  0
  1  3  1  0  0  0
  1  4  1  0  0  0
  1 22  1  0  0  0
  2  5  1  0  0  0
  2  6  1  0  0  0
  2 23  1  0  0  0
  3  7  1  0  0  0
  3  8  1  0  0  0
  3 24  1  0  0  0
  4  9  1  0  0  0
  4 25  1  0  0  0
  4 26  1  0  0  0
  5 10  1  0  0  0
  5 11  1  0  0  0
  5 12  1  0  0  0
  6 13  1  0  0  0
  6 27  1  0  0  0
  6 28  1  0  0  0
  7 14  1  0  0  0
  7 15  1  0  0  0
  7 13  1  0  0  0
  8 16  1  0  0  0
  8 29  1  0  0  0
  8 30  1  0  0  0
  9 10  1  0  0  0
  9 31  1  0  0  0
  9 32  1  0  0  0
 10 17  2  0  0  0
 11 18  1  0  0  0
 11 33  1  0  0  0
 11 34  1  0  0  0
 12 35  1  0  0  0
 12 36  1  0  0  0
 12 37  1  0  0  0
 13 38  1  0  0  0
 13 39  1  0  0  0
 14 19  2  0  0  0
 14 16  1  0  0  0
 15 40  1  0  0  0
 15 41  1  0  0  0
 15 42  1  0  0  0
 16 43  1  0  0  0
 16 44  1  0  0  0
 17 20  1  0  0  0
 17 45  1  0  0  0
 18 20  1  0  0  0
 18 46  1  0  0  0
 18 47  1  0  0  0
 20 21  2  0  0  0
M  END
> <i_ionizer_Ion_state_n>
0

> <i_ionizer_Tot_Q>
0

> <s_ionizer_Ion_centers>


> <s_ionizer_Ion_types>


> <s_ionizer_Ion_ctrs_in>


> <r_ionizer_Ionization_penalty>
0

> <r_ionizer_Ionization_penalty_charging>
0

> <r_ionizer_Ionization_penalty_neutral>
0

> <s_st_Chirality_1>
1_R_3_2_4_22

> <s_st_Chirality_2>
2_S_5_1_6_23

> <s_st_Chirality_3>
3_S_7_1_8_24

> <s_st_Chirality_4>
5_R_10_2_11_12

> <s_st_Chirality_5>
7_S_14_3_13_15

> <s_st_EZ_1>
5_10_17_20_Z

> <i_mmod_Serial_Number-OPLS-2005>
178

> <i_i_glide_lignum>
176

> <r_i_docking_score>
-2.53479

> <r_i_glide_gscore>
-2.53479

> <r_i_glide_lipo>
-1.58882

> <r_i_glide_hbond>
0

> <r_i_glide_metal>
0

> <r_i_glide_eburp>
-1.61805

> <r_i_glide_evdw>
16.2458

> <r_i_glide_ecoul>
2.19482

> <r_i_glide_erotb>
0

> <r_i_glide_esite>
-0.847064

> <r_i_glide_emodel>
12.3849

> <r_i_glide_energy>
18.4406

> <r_i_glide_einternal>
0

> <i_i_glide_confnum>
1

> <i_i_glide_posenum>
124

$$$$
C06145
                    3D
 Structure written by MMmdl.
 11 10  0  0  1  0            999 V2000
    0.9602    1.2799    2.9319 C   0  0  0  0  0  0
    1.2305    0.6314    4.2728 C   0  0  0  0  0  0
    0.8846    2.7934    3.0990 C   0  0  0  0  0  0
    2.2560   -0.1976    4.5199 C   0  0  0  0  0  0
    0.1007    3.2999    3.8990 O   0  0  0  0  0  0
    1.7446    1.0111    2.2241 H   0  0  0  0  0  0
    0.0123    0.9214    2.5299 H   0  0  0  0  0  0
    0.5293    0.8558    5.0637 H   0  0  0  0  0  0
    1.5671    3.3721    2.4762 H   0  0  0  0  0  0
    2.3925   -0.6357    5.4977 H   0  0  0  0  0  0
    2.9716   -0.4497    3.7509 H   0  0  0  0  0  0
  1  2  1  0  0  0
  1  3  1  0  0  0
  1  6  1  0  0  0
  1  7  1  0  0  0
  2  4  2  0  0  0
  2  8  1  0  0  0
  3  5  2  0  0  0
  3  9  1  0  0  0
  4 10  1  0  0  0
  4 11  1  0  0  0
M  END
> <i_ionizer_Ion_state_n>
0

> <i_ionizer_Tot_Q>
0

> <s_ionizer_Ion_centers>


> <s_ionizer_Ion_types>


> <s_ionizer_Ion_ctrs_in>


> <r_ionizer_Ionization_penalty>
0

> <r_ionizer_Ionization_penalty_charging>
0

> <r_ionizer_Ionization_penalty_neutral>
0

> <i_mmod_Serial_Number-OPLS-2005>
859

> <i_i_glide_lignum>
847

> <r_i_docking_score>
-2.52349

> <r_i_glide_gscore>
-2.52349

> <r_i_glide_lipo>
-0.277224

> <r_i_glide_hbond>
-0.5

> <r_i_glide_metal>
0

> <r_i_glide_eburp>
-2.5

> <r_i_glide_evdw>
-10.5626

> <r_i_glide_ecoul>
-3.1373

> <r_i_glide_erotb>
2.34859

> <r_i_glide_esite>
-0.436112

> <r_i_glide_emodel>
-17.0052

> <r_i_glide_energy>
-13.6999

> <r_i_glide_einternal>
1.60294

> <i_i_glide_confnum>
1

> <i_i_glide_posenum>
389

$$$$
C03691
                    3D
 Structure written by MMmdl.
 71 73  0  0  1  0            999 V2000
    2.9734    4.5780    2.2304 C   0  0  2  0  0  0
    2.9355    3.1930    1.8797 O   0  0  0  0  0  0
    3.1020    2.2784    2.9631 C   0  0  2  0  0  0
    4.4998    2.4726    3.6167 C   0  0  1  0  0  0
    4.7275    3.9557    3.9691 C   0  0  2  0  0  0
    4.3879    4.8602    2.7770 C   0  0  0  0  0  0
    2.0648    4.9266    3.2753 O   0  0  0  0  0  0
    0.4318    5.4061    3.0591 P   0  0  0  0  0  0
    0.4452    6.5628    1.7994 O   0  0  0  0  0  0
   -0.2857    4.2243    2.5318 O   0  0  0  0  0  0
   -0.5375    7.5758    1.6780 C   0  0  0  0  0  0
   -1.6259    7.4707    2.7590 C   0  0  1  0  0  0
   -1.1639    7.9671    4.0114 O   0  0  0  0  0  0
   -2.8462    8.3369    2.4410 C   0  0  2  0  0  0
   -2.1626    8.6711    4.6872 C   0  0  2  0  0  0
   -3.4248    8.6543    3.8126 C   0  0  2  0  0  0
   -3.7718    7.6997    1.5794 O   0  0  0  0  0  0
   -1.7009   10.0928    4.9181 N   0  0  0  0  0  0
   -4.3509    7.6851    4.2703 O   0  0  0  0  0  0
   -1.4882   10.5240    6.2473 C   0  0  0  0  0  0
   -1.4874   10.9750    3.8672 C   0  0  0  0  0  0
   -1.0595   11.8113    6.4311 N   0  0  0  0  0  0
   -1.6877    9.7780    7.2058 O   0  0  0  0  0  0
   -1.0627   12.2412    4.0645 C   0  0  0  0  0  0
   -0.8449   12.6479    5.4340 C   0  0  0  0  0  0
   -0.4217   13.8881    5.7132 N   0  0  0  0  0  0
    2.7638    5.4526    0.9748 C   0  0  0  0  0  0
    2.8969    6.6917    1.0942 O   0  0  0  0  0  0
    2.7781    0.8622    2.4003 C   0  0  2  0  0  0
    1.4122    0.2934    2.8577 C   0  0  1  0  0  0
    1.3488    0.0276    4.3726 C   0  0  0  0  0  0
    2.4973   -0.6834    4.7886 O   0  0  0  0  0  0
    6.0858    4.1753    4.2998 O   0  0  0  0  0  0
    4.5710    1.6823    4.8451 N   0  0  0  0  0  0
    5.3901    0.6444    5.0758 C   0  0  0  0  0  0
    5.5810    0.2273    6.5358 C   0  0  0  0  0  0
    6.7144   -0.6073    6.6818 O   0  0  0  0  0  0
    3.8072   -0.0840    2.6277 O   0  0  0  0  0  0
    0.3620    1.1732    2.5080 O   0  0  0  0  0  0
    5.9499    0.0108    4.1821 O   0  0  0  0  0  0
    2.3414    2.5216    3.7060 H   0  0  0  0  0  0
    5.2668    2.1720    2.9004 H   0  0  0  0  0  0
    4.1075    4.2377    4.8217 H   0  0  0  0  0  0
    5.1199    4.6999    1.9828 H   0  0  0  0  0  0
    4.4791    5.9059    3.0755 H   0  0  0  0  0  0
   -0.0755    8.5600    1.6882 H   0  0  0  0  0  0
   -1.0032    7.4633    0.7007 H   0  0  0  0  0  0
   -1.9326    6.4329    2.8983 H   0  0  0  0  0  0
   -2.5199    9.2709    1.9804 H   0  0  0  0  0  0
   -2.2987    8.2452    5.6830 H   0  0  0  0  0  0
   -3.9241    9.6241    3.8206 H   0  0  0  0  0  0
   -4.2918    8.3659    1.1569 H   0  0  0  0  0  0
   -5.1909    7.8656    3.8759 H   0  0  0  0  0  0
   -1.6564   10.6669    2.8484 H   0  0  0  0  0  0
   -0.9039   12.8882    3.2130 H   0  0  0  0  0  0
   -0.2454   14.5433    4.9656 H   0  0  0  0  0  0
   -0.2721   14.1590    6.6741 H   0  0  0  0  0  0
    2.7210    0.9525    1.3151 H   0  0  0  0  0  0
    1.2425   -0.6498    2.3362 H   0  0  0  0  0  0
    1.3243    0.9705    4.9199 H   0  0  0  0  0  0
    0.4498   -0.5271    4.6444 H   0  0  0  0  0  0
    2.4428   -0.8231    5.7218 H   0  0  0  0  0  0
    6.3841    3.4539    4.8323 H   0  0  0  0  0  0
    3.9530    1.9534    5.5965 H   0  0  0  0  0  0
    5.7023    1.1180    7.1528 H   0  0  0  0  0  0
    4.6961   -0.3024    6.8903 H   0  0  0  0  0  0
    6.4643   -1.4941    6.4721 H   0  0  0  0  0  0
    3.8605   -0.2390    3.5594 H   0  0  0  0  0  0
    0.5812    2.0283    2.8475 H   0  0  0  0  0  0
   -0.0561    6.0369    4.3038 O   0  5  0  0  0  0
    2.4422    4.8707   -0.0855 O   0  5  0  0  0  0
  1  7  1  0  0  0
  1 27  1  0  0  0
  1  2  1  0  0  0
  1  6  1  0  0  0
  2  3  1  0  0  0
  3  4  1  0  0  0
  3 29  1  0  0  0
  3 41  1  0  0  0
  4  5  1  0  0  0
  4 34  1  0  0  0
  4 42  1  0  0  0
  5  6  1  0  0  0
  5 33  1  0  0  0
  5 43  1  0  0  0
  6 44  1  0  0  0
  6 45  1  0  0  0
  7  8  1  0  0  0
  8  9  1  0  0  0
  8 10  2  0  0  0
  8 70  1  0  0  0
  9 11  1  0  0  0
 11 12  1  0  0  0
 11 46  1  0  0  0
 11 47  1  0  0  0
 12 13  1  0  0  0
 12 14  1  0  0  0
 12 48  1  0  0  0
 13 15  1  0  0  0
 14 16  1  0  0  0
 14 17  1  0  0  0
 14 49  1  0  0  0
 15 18  1  0  0  0
 15 16  1  0  0  0
 15 50  1  0  0  0
 16 19  1  0  0  0
 16 51  1  0  0  0
 17 52  1  0  0  0
 18 20  1  0  0  0
 18 21  1  0  0  0
 19 53  1  0  0  0
 20 22  1  0  0  0
 20 23  2  0  0  0
 21 24  2  0  0  0
 21 54  1  0  0  0
 22 25  2  0  0  0
 24 25  1  0  0  0
 24 55  1  0  0  0
 25 26  1  0  0  0
 26 56  1  0  0  0
 26 57  1  0  0  0
 27 28  2  0  0  0
 27 71  1  0  0  0
 29 30  1  0  0  0
 29 38  1  0  0  0
 29 58  1  0  0  0
 30 31  1  0  0  0
 30 39  1  0  0  0
 30 59  1  0  0  0
 31 32  1  0  0  0
 31 60  1  0  0  0
 31 61  1  0  0  0
 32 62  1  0  0  0
 33 63  1  0  0  0
 34 35  1  0  0  0
 34 64  1  0  0  0
 35 36  1  0  0  0
 35 40  2  0  0  0
 36 37  1  0  0  0
 36 65  1  0  0  0
 36 66  1  0  0  0
 37 67  1  0  0  0
 38 68  1  0  0  0
 39 69  1  0  0  0
M  CHG  2  70  -1  71  -1
M  END
> <i_ionizer_Ion_state_n>
3

> <i_ionizer_Tot_Q>
-2

> <s_ionizer_Ion_centers>
70_71

> <s_ionizer_Ion_types>
OM_OM

> <s_ionizer_Ion_ctrs_in>
10_30

> <r_ionizer_Ionization_penalty>
0.000599649

> <r_ionizer_Ionization_penalty_charging>
0.000599649

> <r_ionizer_Ionization_penalty_neutral>
0

> <s_st_Chirality_1>
1_R_7_2_27_6

> <s_st_Chirality_2>
3_R_2_29_4_41

> <s_st_Chirality_3>
4_R_34_3_5_42

> <s_st_Chirality_4>
5_S_33_4_6_43

> <s_st_Chirality_5>
12_R_13_14_11_48

> <s_st_Chirality_6>
14_R_17_16_12_49

> <s_st_Chirality_7>
15_R_13_18_16_50

> <s_st_Chirality_8>
16_R_19_15_14_51

> <s_st_Chirality_9>
29_R_38_30_3_58

> <s_st_Chirality_10>
30_R_39_29_31_59

> <i_mmod_Serial_Number-OPLS-2005>
561

> <i_i_glide_lignum>
555

> <r_i_docking_score>
-2.48784

> <r_i_glide_gscore>
-2.48784

> <r_i_glide_lipo>
-1.22895

> <r_i_glide_hbond>
-0.787241

> <r_i_glide_metal>
0

> <r_i_glide_eburp>
-5.48064e-17

> <r_i_glide_evdw>
-6.99584

> <r_i_glide_ecoul>
-5.44992

> <r_i_glide_erotb>
0.576843

> <r_i_glide_esite>
0.0561749

> <r_i_glide_emodel>
-33.4507

> <r_i_glide_energy>
-12.4458

> <r_i_glide_einternal>
15.0844

> <i_i_glide_confnum>
65

> <i_i_glide_posenum>
598

$$$$
C04424
                    3D
 Structure written by MMmdl.
 40 39  0  0  1  0            999 V2000
    2.3205    3.4602    3.0228 C   0  0  2  0  0  0
    0.7539    2.6307    3.4999 S   0  0  0  0  0  0
    2.2292    4.2340    1.6874 C   0  0  0  0  0  0
    3.5542    2.5319    3.0909 C   0  0  0  0  0  0
    0.9266    0.9650    2.7944 C   0  0  0  0  0  0
    1.1791    5.3586    1.6845 C   0  0  0  0  0  0
    3.9389    2.1141    4.5195 C   0  0  0  0  0  0
    2.1629    0.1914    3.2671 C   0  0  0  0  0  0
    0.1279    0.4652    2.0044 O   0  0  0  0  0  0
    1.2708    6.2437    0.4331 C   0  0  0  0  0  0
    5.2749    0.8926    4.4438 S   0  0  0  0  0  0
    1.8391   -0.6167    4.5334 C   0  0  0  0  0  0
    2.7327   -0.7011    2.1511 C   0  0  0  0  0  0
    0.5148    7.5748    0.5983 C   0  0  0  0  0  0
   -0.9756    7.3905    0.9020 C   0  0  0  0  0  0
   -1.7298    8.4913    0.9070 N   0  0  0  0  0  0
   -1.4486    6.2780    1.1246 O   0  0  0  0  0  0
    2.4713    4.2148    3.7958 H   0  0  0  0  0  0
    3.2033    4.6796    1.4822 H   0  0  0  0  0  0
    2.0420    3.5586    0.8546 H   0  0  0  0  0  0
    3.4115    1.6450    2.4759 H   0  0  0  0  0  0
    4.4023    3.0567    2.6491 H   0  0  0  0  0  0
    0.1776    4.9319    1.7424 H   0  0  0  0  0  0
    1.3047    5.9762    2.5746 H   0  0  0  0  0  0
    4.2756    2.9744    5.0986 H   0  0  0  0  0  0
    3.0925    1.6722    5.0452 H   0  0  0  0  0  0
    2.9285    0.9250    3.5228 H   0  0  0  0  0  0
    2.3205    6.4411    0.2106 H   0  0  0  0  0  0
    0.8701    5.6993   -0.4235 H   0  0  0  0  0  0
    4.4817   -0.1813    4.3909 H   0  0  0  0  0  0
    2.7329   -1.1044    4.9233 H   0  0  0  0  0  0
    1.4450    0.0232    5.3241 H   0  0  0  0  0  0
    1.0993   -1.3928    4.3331 H   0  0  0  0  0  0
    3.6707   -1.1612    2.4627 H   0  0  0  0  0  0
    2.0437   -1.5047    1.8878 H   0  0  0  0  0  0
    2.9358   -0.1258    1.2469 H   0  0  0  0  0  0
    0.9720    8.1546    1.4016 H   0  0  0  0  0  0
    0.6080    8.1701   -0.3106 H   0  0  0  0  0  0
   -2.7176    8.4147    1.1007 H   0  0  0  0  0  0
   -1.3147    9.3918    0.7182 H   0  0  0  0  0  0
  1  2  1  0  0  0
  1  3  1  0  0  0
  1  4  1  0  0  0
  1 18  1  0  0  0
  2  5  1  0  0  0
  3  6  1  0  0  0
  3 19  1  0  0  0
  3 20  1  0  0  0
  4  7  1  0  0  0
  4 21  1  0  0  0
  4 22  1  0  0  0
  5  8  1  0  0  0
  5  9  2  0  0  0
  6 10  1  0  0  0
  6 23  1  0  0  0
  6 24  1  0  0  0
  7 11  1  0  0  0
  7 25  1  0  0  0
  7 26  1  0  0  0
  8 12  1  0  0  0
  8 13  1  0  0  0
  8 27  1  0  0  0
 10 14  1  0  0  0
 10 28  1  0  0  0
 10 29  1  0  0  0
 11 30  1  0  0  0
 12 31  1  0  0  0
 12 32  1  0  0  0
 12 33  1  0  0  0
 13 34  1  0  0  0
 13 35  1  0  0  0
 13 36  1  0  0  0
 14 15  1  0  0  0
 14 37  1  0  0  0
 14 38  1  0  0  0
 15 16  1  0  0  0
 15 17  2  0  0  0
 16 39  1  0  0  0
 16 40  1  0  0  0
M  END
> <i_ionizer_Ion_state_n>
0

> <i_ionizer_Tot_Q>
0

> <s_ionizer_Ion_centers>


> <s_ionizer_Ion_types>


> <s_ionizer_Ion_ctrs_in>


> <r_ionizer_Ionization_penalty>
0.00187065

> <r_ionizer_Ionization_penalty_charging>
0

> <r_ionizer_Ionization_penalty_neutral>
0.00187065

> <s_st_Chirality_1>
1_R_2_4_3_18

> <i_mmod_Serial_Number-OPLS-2005>
599

> <i_i_glide_lignum>
593

> <r_i_docking_score>
-2.48638

> <r_i_glide_gscore>
-2.48638

> <r_i_glide_lipo>
-0.800602

> <r_i_glide_hbond>
-0.224343

> <r_i_glide_metal>
0

> <r_i_glide_eburp>
-1.68598

> <r_i_glide_evdw>
-33.7008

> <r_i_glide_ecoul>
-6.76558

> <r_i_glide_erotb>
4.27792

> <r_i_glide_esite>
-0.680748

> <r_i_glide_emodel>
-57.4437

> <r_i_glide_energy>
-40.4664

> <r_i_glide_einternal>
4.4843

> <i_i_glide_confnum>
128

> <i_i_glide_posenum>
929

$$$$
C03917
                    3D
 Structure written by MMmdl.
 51 54  0  0  1  0            999 V2000
    1.5307    2.6771    3.1222 C   0  0  2  0  0  0
    1.6673    3.7326    1.9908 C   0  0  1  0  0  0
    2.1136    1.3582    2.5879 C   0  0  1  0  0  0
    0.1003    2.5762    3.7035 C   0  0  0  0  0  0
    0.8997    5.0325    2.3393 C   0  0  2  0  0  0
    3.1480    3.9020    1.5727 C   0  0  0  0  0  0
    3.6091    1.4880    2.2513 C   0  0  2  0  0  0
    2.0276    0.0832    3.4308 C   0  0  0  0  0  0
   -0.9996    3.3022    2.9086 C   0  0  0  0  0  0
   -0.6057    4.6568    2.2711 C   0  0  1  0  0  0
    1.1109    6.1359    1.2740 C   0  0  0  0  0  0
    1.3408    5.5865    3.7176 C   0  0  0  0  0  0
    3.7725    2.5514    1.1486 C   0  0  0  0  0  0
    3.8826    0.0392    1.8135 C   0  0  2  0  0  0
    4.4878    1.8602    3.4751 C   0  0  0  0  0  0
    3.1166   -0.8282    2.8330 C   0  0  0  0  0  0
   -1.5323    5.8264    2.6442 C   0  0  0  0  0  0
    0.2241    7.3846    1.4846 C   0  0  0  0  0  0
    5.2532   -0.2985    1.7485 O   0  0  0  0  0  0
   -1.2447    7.0375    1.7525 C   0  0  0  0  0  0
   -2.1558    7.7247    1.2962 O   0  0  0  0  0  0
    2.1535    2.9909    3.9583 H   0  0  0  0  0  0
    1.1715    3.3202    1.1106 H   0  0  0  0  0  0
    1.5830    1.1363    1.6601 H   0  0  0  0  0  0
   -0.8031    4.4862    1.2112 H   0  0  0  0  0  0
   -0.1860    1.5353    3.8495 H   0  0  0  0  0  0
    0.1184    3.0046    4.7054 H   0  0  0  0  0  0
    3.2269    4.5960    0.7366 H   0  0  0  0  0  0
    3.7183    4.3411    2.3907 H   0  0  0  0  0  0
    2.2481    0.2990    4.4765 H   0  0  0  0  0  0
    1.0392   -0.3737    3.3820 H   0  0  0  0  0  0
   -1.3161    2.6394    2.1027 H   0  0  0  0  0  0
   -1.8787    3.4255    3.5415 H   0  0  0  0  0  0
    2.1547    6.4498    1.2661 H   0  0  0  0  0  0
    0.9120    5.7253    0.2834 H   0  0  0  0  0  0
    0.8287    6.5150    3.9661 H   0  0  0  0  0  0
    1.1373    4.8941    4.5318 H   0  0  0  0  0  0
    2.4102    5.7967    3.7265 H   0  0  0  0  0  0
    3.2848    2.2065    0.2364 H   0  0  0  0  0  0
    4.8267    2.6834    0.9039 H   0  0  0  0  0  0
    3.4473   -0.1201    0.8261 H   0  0  0  0  0  0
    4.3899    1.1364    4.2837 H   0  0  0  0  0  0
    5.5414    1.8979    3.1979 H   0  0  0  0  0  0
    4.2360    2.8375    3.8836 H   0  0  0  0  0  0
    3.7761   -1.1762    3.6286 H   0  0  0  0  0  0
    2.6900   -1.7078    2.3505 H   0  0  0  0  0  0
   -2.5746    5.5347    2.5132 H   0  0  0  0  0  0
   -1.4077    6.1060    3.6902 H   0  0  0  0  0  0
    0.5924    7.9678    2.3282 H   0  0  0  0  0  0
    0.2856    8.0331    0.6104 H   0  0  0  0  0  0
    5.4889   -0.7454    2.5470 H   0  0  0  0  0  0
  1  2  1  0  0  0
  1  3  1  0  0  0
  1  4  1  0  0  0
  1 22  1  0  0  0
  2  5  1  0  0  0
  2  6  1  0  0  0
  2 23  1  0  0  0
  3  7  1  0  0  0
  3  8  1  0  0  0
  3 24  1  0  0  0
  4  9  1  0  0  0
  4 26  1  0  0  0
  4 27  1  0  0  0
  5 10  1  0  0  0
  5 11  1  0  0  0
  5 12  1  0  0  0
  6 13  1  0  0  0
  6 28  1  0  0  0
  6 29  1  0  0  0
  7 14  1  0  0  0
  7 15  1  0  0  0
  7 13  1  0  0  0
  8 16  1  0  0  0
  8 30  1  0  0  0
  8 31  1  0  0  0
  9 10  1  0  0  0
  9 32  1  0  0  0
  9 33  1  0  0  0
 10 17  1  0  0  0
 10 25  1  0  0  0
 11 18  1  0  0  0
 11 34  1  0  0  0
 11 35  1  0  0  0
 12 36  1  0  0  0
 12 37  1  0  0  0
 12 38  1  0  0  0
 13 39  1  0  0  0
 13 40  1  0  0  0
 14 19  1  0  0  0
 14 16  1  0  0  0
 14 41  1  0  0  0
 15 42  1  0  0  0
 15 43  1  0  0  0
 15 44  1  0  0  0
 16 45  1  0  0  0
 16 46  1  0  0  0
 17 20  1  0  0  0
 17 47  1  0  0  0
 17 48  1  0  0  0
 18 20  1  0  0  0
 18 49  1  0  0  0
 18 50  1  0  0  0
 19 51  1  0  0  0
 20 21  2  0  0  0
M  END
> <i_ionizer_Ion_state_n>
0

> <i_ionizer_Tot_Q>
0

> <s_ionizer_Ion_centers>


> <s_ionizer_Ion_types>


> <s_ionizer_Ion_ctrs_in>


> <r_ionizer_Ionization_penalty>
0

> <r_ionizer_Ionization_penalty_charging>
0

> <r_ionizer_Ionization_penalty_neutral>
0

> <s_st_Chirality_1>
1_R_3_2_4_22

> <s_st_Chirality_2>
2_S_5_1_6_23

> <s_st_Chirality_3>
3_S_7_1_8_24

> <s_st_Chirality_4>
5_S_2_10_11_12

> <s_st_Chirality_5>
7_S_14_3_13_15

> <s_st_Chirality_6>
10_S_5_17_9_25

> <s_st_Chirality_7>
14_S_19_7_16_41

> <i_mmod_Serial_Number-OPLS-2005>
573

> <i_i_glide_lignum>
567

> <r_i_docking_score>
-2.48496

> <r_i_glide_gscore>
-2.48496

> <r_i_glide_lipo>
-1.63752

> <r_i_glide_hbond>
0

> <r_i_glide_metal>
0

> <r_i_glide_eburp>
-1.5875

> <r_i_glide_evdw>
9.80419

> <r_i_glide_ecoul>
1.95306

> <r_i_glide_erotb>
0

> <r_i_glide_esite>
-0.239584

> <r_i_glide_emodel>
14.0294

> <r_i_glide_energy>
11.7572

> <r_i_glide_einternal>
1.13809

> <i_i_glide_confnum>
1

> <i_i_glide_posenum>
884

$$$$
C00163
                    3D
 Structure written by MMmdl.
 10  9  0  0  1  0            999 V2000
    0.5341    2.1099    3.6773 C   0  0  0  0  0  0
    1.6833    1.3000    4.2906 C   0  0  0  0  0  0
    0.1000    3.1050    4.2998 O   0  0  0  0  0  0
    1.6451   -0.1902    3.9092 C   0  0  0  0  0  0
    2.6276    1.7391    3.9677 H   0  0  0  0  0  0
    1.6405    1.4043    5.3750 H   0  0  0  0  0  0
    2.4777   -0.7250    4.3659 H   0  0  0  0  0  0
    0.7236   -0.6649    4.2485 H   0  0  0  0  0  0
    1.7187   -0.3273    2.8297 H   0  0  0  0  0  0
    0.1036    1.7087    2.5742 O   0  5  0  0  0  0
  1  2  1  0  0  0
  1  3  2  0  0  0
  1 10  1  0  0  0
  2  4  1  0  0  0
  2  5  1  0  0  0
  2  6  1  0  0  0
  4  7  1  0  0  0
  4  8  1  0  0  0
  4  9  1  0  0  0
M  CHG  1  10  -1
M  END
> <i_ionizer_Ion_state_n>
1

> <i_ionizer_Tot_Q>
-1

> <s_ionizer_Ion_centers>
10

> <s_ionizer_Ion_types>
OM

> <s_ionizer_Ion_ctrs_in>
3

> <r_ionizer_Ionization_penalty>
0.00059219

> <r_ionizer_Ionization_penalty_charging>
0.00059219

> <r_ionizer_Ionization_penalty_neutral>
0

> <i_mmod_Serial_Number-OPLS-2005>
117

> <i_i_glide_lignum>
115

> <r_i_docking_score>
-2.48271

> <r_i_glide_gscore>
-2.48271

> <r_i_glide_lipo>
-0.210857

> <r_i_glide_hbond>
-0.7

> <r_i_glide_metal>
0

> <r_i_glide_eburp>
-2.5

> <r_i_glide_evdw>
-5.85799

> <r_i_glide_ecoul>
-4.05812

> <r_i_glide_erotb>
2.21401

> <r_i_glide_esite>
-0.411414

> <r_i_glide_emodel>
-25.1001

> <r_i_glide_energy>
-9.91611

> <r_i_glide_einternal>
0.326295

> <i_i_glide_confnum>
3

> <i_i_glide_posenum>
22

$$$$
C00410
                    3D
 Structure written by MMmdl.
 53 56  0  0  1  0            999 V2000
    1.9351    3.5431    1.7391 C   0  0  1  0  0  0
    1.6498    2.3162    2.6508 C   0  0  2  0  0  0
    1.3228    4.8698    2.2918 C   0  0  2  0  0  0
    3.4427    3.6560    1.3772 C   0  0  0  0  0  0
    2.2621    1.0633    2.0008 C   0  0  1  0  0  0
    0.1379    2.1571    2.8555 C   0  0  0  0  0  0
   -0.1615    4.6511    2.6414 C   0  0  0  0  0  0
    1.4673    5.9621    1.1988 C   0  0  0  0  0  0
    2.0585    5.3366    3.5648 C   0  0  0  0  0  0
    4.0352    2.3411    0.8276 C   0  0  0  0  0  0
    3.7764    1.1730    1.7945 C   0  0  2  0  0  0
    2.0743   -0.2970    2.6757 C   0  0  0  0  0  0
   -0.4629    3.4185    3.4766 C   0  0  0  0  0  0
   -1.1611    5.4736    2.2592 C   0  0  0  0  0  0
    0.5474    7.1724    1.3970 C   0  0  0  0  0  0
    4.0533   -0.2300    1.2078 C   0  0  2  0  0  0
    4.5473    1.4020    3.1222 C   0  0  0  0  0  0
    3.1432   -1.1872    2.0152 C   0  0  0  0  0  0
   -0.9022    6.7162    1.5204 C   0  0  0  0  0  0
    5.5334   -0.6349    1.0981 C   0  0  0  0  0  0
   -1.7987    7.4018    1.0336 O   0  0  0  0  0  0
    5.9921   -1.4746   -0.0917 C   0  0  0  0  0  0
    6.3359   -0.2999    1.9671 O   0  0  0  0  0  0
    1.4193    3.3377    0.7999 H   0  0  0  0  0  0
    2.1081    2.4714    3.6267 H   0  0  0  0  0  0
    1.8051    0.9742    1.0134 H   0  0  0  0  0  0
    3.5906    4.4378    0.6330 H   0  0  0  0  0  0
    4.0132    3.9638    2.2521 H   0  0  0  0  0  0
   -0.3461    1.9524    1.9000 H   0  0  0  0  0  0
   -0.0663    1.3025    3.5005 H   0  0  0  0  0  0
    2.5014    6.3023    1.1408 H   0  0  0  0  0  0
    1.2417    5.5263    0.2246 H   0  0  0  0  0  0
    1.5894    6.2281    3.9813 H   0  0  0  0  0  0
    2.0486    4.5718    4.3408 H   0  0  0  0  0  0
    3.0991    5.5861    3.3592 H   0  0  0  0  0  0
    3.5824    2.1229   -0.1401 H   0  0  0  0  0  0
    5.1046    2.4568    0.6498 H   0  0  0  0  0  0
    2.2578   -0.2189    3.7475 H   0  0  0  0  0  0
    1.0675   -0.6906    2.5353 H   0  0  0  0  0  0
   -1.5406    3.3003    3.5921 H   0  0  0  0  0  0
   -0.0547    3.5666    4.4765 H   0  0  0  0  0  0
   -2.1845    5.2568    2.5285 H   0  0  0  0  0  0
    0.8231    7.7192    2.2987 H   0  0  0  0  0  0
    0.6438    7.8624    0.5584 H   0  0  0  0  0  0
    3.6704   -0.2298    0.1862 H   0  0  0  0  0  0
    5.6200    1.4789    2.9441 H   0  0  0  0  0  0
    4.2439    2.3201    3.6228 H   0  0  0  0  0  0
    4.3899    0.5865    3.8276 H   0  0  0  0  0  0
    3.6814   -1.7473    2.7790 H   0  0  0  0  0  0
    2.6788   -1.9120    1.3462 H   0  0  0  0  0  0
    6.9598   -1.9309    0.1175 H   0  0  0  0  0  0
    5.2798   -2.2702   -0.3069 H   0  0  0  0  0  0
    6.0930   -0.8486   -0.9781 H   0  0  0  0  0  0
  1  2  1  0  0  0
  1  3  1  0  0  0
  1  4  1  0  0  0
  1 24  1  0  0  0
  2  5  1  0  0  0
  2  6  1  0  0  0
  2 25  1  0  0  0
  3  7  1  0  0  0
  3  8  1  0  0  0
  3  9  1  0  0  0
  4 10  1  0  0  0
  4 27  1  0  0  0
  4 28  1  0  0  0
  5 11  1  0  0  0
  5 12  1  0  0  0
  5 26  1  0  0  0
  6 13  1  0  0  0
  6 29  1  0  0  0
  6 30  1  0  0  0
  7 14  2  0  0  0
  7 13  1  0  0  0
  8 15  1  0  0  0
  8 31  1  0  0  0
  8 32  1  0  0  0
  9 33  1  0  0  0
  9 34  1  0  0  0
  9 35  1  0  0  0
 10 11  1  0  0  0
 10 36  1  0  0  0
 10 37  1  0  0  0
 11 16  1  0  0  0
 11 17  1  0  0  0
 12 18  1  0  0  0
 12 38  1  0  0  0
 12 39  1  0  0  0
 13 40  1  0  0  0
 13 41  1  0  0  0
 14 19  1  0  0  0
 14 42  1  0  0  0
 15 19  1  0  0  0
 15 43  1  0  0  0
 15 44  1  0  0  0
 16 20  1  0  0  0
 16 18  1  0  0  0
 16 45  1  0  0  0
 17 46  1  0  0  0
 17 47  1  0  0  0
 17 48  1  0  0  0
 18 49  1  0  0  0
 18 50  1  0  0  0
 19 21  2  0  0  0
 20 22  1  0  0  0
 20 23  2  0  0  0
 22 51  1  0  0  0
 22 52  1  0  0  0
 22 53  1  0  0  0
M  END
> <i_ionizer_Ion_state_n>
0

> <i_ionizer_Tot_Q>
0

> <s_ionizer_Ion_centers>


> <s_ionizer_Ion_types>


> <s_ionizer_Ion_ctrs_in>


> <r_ionizer_Ionization_penalty>
0

> <r_ionizer_Ionization_penalty_charging>
0

> <r_ionizer_Ionization_penalty_neutral>
0

> <s_st_Chirality_1>
1_S_3_2_4_24

> <s_st_Chirality_2>
2_S_1_5_6_25

> <s_st_Chirality_3>
3_R_7_1_8_9

> <s_st_Chirality_4>
5_S_11_2_12_26

> <s_st_Chirality_5>
11_R_5_16_10_17

> <s_st_Chirality_6>
16_S_20_11_18_45

> <s_st_EZ_1>
3_7_14_19_Z

> <i_mmod_Serial_Number-OPLS-2005>
228

> <i_i_glide_lignum>
226

> <r_i_docking_score>
-2.39044

> <r_i_glide_gscore>
-2.39044

> <r_i_glide_lipo>
-1.78553

> <r_i_glide_hbond>
0

> <r_i_glide_metal>
0

> <r_i_glide_eburp>
-1.40551

> <r_i_glide_evdw>
14.716

> <r_i_glide_ecoul>
2.64646

> <r_i_glide_erotb>
0

> <r_i_glide_esite>
-0.641326

> <r_i_glide_emodel>
12.7962

> <r_i_glide_energy>
17.3625

> <r_i_glide_einternal>
1.07839

> <i_i_glide_confnum>
1

> <i_i_glide_posenum>
242

$$$$
C00546
                    3D
 Structure written by MMmdl.
  9  8  0  0  1  0            999 V2000
    1.6836    0.3451    3.6490 C   0  0  0  0  0  0
    1.2776   -0.2954    2.3192 C   0  0  0  0  0  0
    3.0974    0.0742    4.1495 C   0  0  0  0  0  0
    0.9007    1.0488    4.2861 O   0  0  0  0  0  0
    0.1040   -0.2992    1.9505 O   0  0  0  0  0  0
    2.1005   -0.7315    1.7526 H   0  0  0  0  0  0
    3.2691    0.5800    5.0998 H   0  0  0  0  0  0
    3.2505   -0.9952    4.2957 H   0  0  0  0  0  0
    3.8314    0.4357    3.4291 H   0  0  0  0  0  0
  1  2  1  0  0  0
  1  3  1  0  0  0
  1  4  2  0  0  0
  2  5  2  0  0  0
  2  6  1  0  0  0
  3  7  1  0  0  0
  3  8  1  0  0  0
  3  9  1  0  0  0
M  END
> <i_ionizer_Ion_state_n>
0

> <i_ionizer_Tot_Q>
0

> <s_ionizer_Ion_centers>


> <s_ionizer_Ion_types>


> <s_ionizer_Ion_ctrs_in>


> <r_ionizer_Ionization_penalty>
0

> <r_ionizer_Ionization_penalty_charging>
0

> <r_ionizer_Ionization_penalty_neutral>
0

> <i_mmod_Serial_Number-OPLS-2005>
276

> <i_i_glide_lignum>
274

> <r_i_docking_score>
-2.39024

> <r_i_glide_gscore>
-2.39024

> <r_i_glide_lipo>
-0.10936

> <r_i_glide_hbond>
-0.124486

> <r_i_glide_metal>
0

> <r_i_glide_eburp>
-2.5

> <r_i_glide_evdw>
-14.2225

> <r_i_glide_ecoul>
-2.51181

> <r_i_glide_erotb>
2.25813

> <r_i_glide_esite>
-0.525543

> <r_i_glide_emodel>
-20.1712

> <r_i_glide_energy>
-16.7343

> <r_i_glide_einternal>
0.0656329

> <i_i_glide_confnum>
1

> <i_i_glide_posenum>
953

$$$$
C00353
                    3D
 Structure written by MMmdl.
 62 61  0  0  1  0            999 V2000
    1.7585    3.7947    1.8623 O   0  0  0  0  0  0
    2.9825    2.6764    1.4818 P   0  0  0  0  0  0
    2.5410    1.2747    2.3408 O   0  0  0  0  0  0
    2.9066    2.3925    0.0298 O   0  0  0  0  0  0
    1.1927    0.2826    2.9690 P   0  0  0  0  0  0
    0.0998    0.4913    1.8963 O   0  0  0  0  0  0
  -12.1078   11.8202    9.7258 C   0  0  0  0  0  0
  -10.7047   11.2479    9.6675 C   0  0  0  0  0  0
   -9.7007   11.9251    9.0733 C   0  0  0  0  0  0
   -8.2443   11.5115    8.9536 C   0  0  0  0  0  0
   -7.7141   11.7028    7.5243 C   0  0  0  0  0  0
   -6.2996   11.1727    7.3420 C   0  0  0  0  0  0
   -6.0717   10.0404    6.6440 C   0  0  0  0  0  0
   -4.7359    9.3836    6.3379 C   0  0  0  0  0  0
   -4.5702    9.1149    4.8337 C   0  0  0  0  0  0
   -3.1493    8.7252    4.4542 C   0  0  0  0  0  0
   -2.9151    7.7252    3.5796 C   0  0  0  0  0  0
   -1.5681    7.1943    3.1215 C   0  0  0  0  0  0
   -1.3657    7.3840    1.6101 C   0  0  0  0  0  0
   -0.1024    6.7152    1.0882 C   0  0  0  0  0  0
    0.6367    5.9231    1.8936 C   0  0  0  0  0  0
    1.9086    5.1662    1.5597 C   0  0  0  0  0  0
  -10.5631    9.8874   10.3304 C   0  0  0  0  0  0
   -5.2148   12.0203    7.9908 C   0  0  0  0  0  0
   -2.0585    9.5394    5.1342 C   0  0  0  0  0  0
    0.2169    7.0164   -0.3701 C   0  0  0  0  0  0
  -12.4282   11.9289   10.7622 H   0  0  0  0  0  0
  -12.1647   12.7999    9.2500 H   0  0  0  0  0  0
  -12.8086   11.1572    9.2179 H   0  0  0  0  0  0
   -9.9272   12.8788    8.6186 H   0  0  0  0  0  0
   -8.0960   10.4862    9.2850 H   0  0  0  0  0  0
   -7.6688   12.1295    9.6436 H   0  0  0  0  0  0
   -7.7439   12.7627    7.2671 H   0  0  0  0  0  0
   -8.3698   11.2002    6.8122 H   0  0  0  0  0  0
   -6.9234    9.5142    6.2374 H   0  0  0  0  0  0
   -4.6920    8.4416    6.8854 H   0  0  0  0  0  0
   -3.9042    9.9880    6.6908 H   0  0  0  0  0  0
   -4.8542    9.9993    4.2619 H   0  0  0  0  0  0
   -5.2574    8.3240    4.5293 H   0  0  0  0  0  0
   -3.7621    7.2215    3.1365 H   0  0  0  0  0  0
   -1.5323    6.1321    3.3655 H   0  0  0  0  0  0
   -0.7561    7.6520    3.6821 H   0  0  0  0  0  0
   -1.3237    8.4466    1.3675 H   0  0  0  0  0  0
   -2.2321    6.9872    1.0788 H   0  0  0  0  0  0
    0.3108    5.7889    2.9145 H   0  0  0  0  0  0
    2.7206    5.5684    2.1656 H   0  0  0  0  0  0
    2.2103    5.2713    0.5210 H   0  0  0  0  0  0
  -10.6786    9.9838   11.4101 H   0  0  0  0  0  0
  -11.3420    9.2164    9.9674 H   0  0  0  0  0  0
   -9.6096    9.4032   10.1314 H   0  0  0  0  0  0
   -5.5415   12.3541    8.9760 H   0  0  0  0  0  0
   -4.2790   11.4856    8.1367 H   0  0  0  0  0  0
   -5.0117   12.9038    7.3856 H   0  0  0  0  0  0
   -1.9248    9.2106    6.1647 H   0  0  0  0  0  0
   -1.0983    9.4713    4.6263 H   0  0  0  0  0  0
   -2.3329   10.5944    5.1477 H   0  0  0  0  0  0
    0.3969    8.0814   -0.5107 H   0  0  0  0  0  0
    1.0904    6.4924   -0.7487 H   0  0  0  0  0  0
   -0.6259    6.7300   -0.9993 H   0  0  0  0  0  0
    4.2513    3.1855    2.0520 O   0  5  0  0  0  0
    1.8138   -1.1312    3.0297 O   0  5  0  0  0  0
    0.9161    0.9500    4.3359 O   0  5  0  0  0  0
  1  2  1  0  0  0
  1 22  1  0  0  0
  2  3  1  0  0  0
  2  4  2  0  0  0
  2 60  1  0  0  0
  3  5  1  0  0  0
  5  6  2  0  0  0
  5 61  1  0  0  0
  5 62  1  0  0  0
  7  8  1  0  0  0
  7 27  1  0  0  0
  7 28  1  0  0  0
  7 29  1  0  0  0
  8  9  2  0  0  0
  8 23  1  0  0  0
  9 10  1  0  0  0
  9 30  1  0  0  0
 10 11  1  0  0  0
 10 31  1  0  0  0
 10 32  1  0  0  0
 11 12  1  0  0  0
 11 33  1  0  0  0
 11 34  1  0  0  0
 12 13  2  0  0  0
 12 24  1  0  0  0
 13 14  1  0  0  0
 13 35  1  0  0  0
 14 15  1  0  0  0
 14 36  1  0  0  0
 14 37  1  0  0  0
 15 16  1  0  0  0
 15 38  1  0  0  0
 15 39  1  0  0  0
 16 17  2  0  0  0
 16 25  1  0  0  0
 17 18  1  0  0  0
 17 40  1  0  0  0
 18 19  1  0  0  0
 18 41  1  0  0  0
 18 42  1  0  0  0
 19 20  1  0  0  0
 19 43  1  0  0  0
 19 44  1  0  0  0
 20 21  2  0  0  0
 20 26  1  0  0  0
 21 22  1  0  0  0
 21 45  1  0  0  0
 22 46  1  0  0  0
 22 47  1  0  0  0
 23 48  1  0  0  0
 23 49  1  0  0  0
 23 50  1  0  0  0
 24 51  1  0  0  0
 24 52  1  0  0  0
 24 53  1  0  0  0
 25 54  1  0  0  0
 25 55  1  0  0  0
 25 56  1  0  0  0
 26 57  1  0  0  0
 26 58  1  0  0  0
 26 59  1  0  0  0
M  CHG  3  60  -1  61  -1  62  -1
M  END
> <i_ionizer_Ion_state_n>
7

> <i_ionizer_Tot_Q>
-3

> <s_ionizer_Ion_centers>
60_61_62

> <s_ionizer_Ion_types>
OM_OM_OM

> <s_ionizer_Ion_ctrs_in>
4_7_8

> <r_ionizer_Ionization_penalty>
2.23767e-05

> <r_ionizer_Ionization_penalty_charging>
2.23767e-05

> <r_ionizer_Ionization_penalty_neutral>
0

> <s_st_EZ_1>
11_12_13_14_E

> <s_st_EZ_2>
15_16_17_18_E

> <s_st_EZ_3>
19_20_21_22_E

> <i_mmod_Serial_Number-OPLS-2005>
203

> <i_i_glide_lignum>
201

> <r_i_docking_score>
-2.38658

> <r_i_glide_gscore>
-2.38658

> <r_i_glide_lipo>
-0.991784

> <r_i_glide_hbond>
-0.0573443

> <r_i_glide_metal>
0

> <r_i_glide_eburp>
-0.398262

> <r_i_glide_evdw>
-27.8671

> <r_i_glide_ecoul>
-1.86893

> <r_i_glide_erotb>
1.4861

> <r_i_glide_esite>
-0.0090361

> <r_i_glide_emodel>
-58.7785

> <r_i_glide_energy>
-29.736

> <r_i_glide_einternal>
4.474

> <i_i_glide_confnum>
452

> <i_i_glide_posenum>
955

$$$$
C00048
                    3D
 Structure written by MMmdl.
  6  5  0  0  1  0            999 V2000
    1.0613   -0.4300    2.8177 C   0  0  0  0  0  0
    1.5245    0.4894    3.9562 C   0  0  0  0  0  0
    0.1002   -0.0227    2.1274 O   0  0  0  0  0  0
    0.8997    1.4942    4.2974 O   0  0  0  0  0  0
    2.4529    0.1711    4.4312 H   0  0  0  0  0  0
    1.7002   -1.4988    2.7003 O   0  5  0  0  0  0
  1  2  1  0  0  0
  1  3  2  0  0  0
  1  6  1  0  0  0
  2  4  2  0  0  0
  2  5  1  0  0  0
M  CHG  1   6  -1
M  END
> <i_ionizer_Ion_state_n>
1

> <i_ionizer_Tot_Q>
-1

> <s_ionizer_Ion_centers>
6

> <s_ionizer_Ion_types>
OM

> <s_ionizer_Ion_ctrs_in>
3

> <r_ionizer_Ionization_penalty>
0.00059219

> <r_ionizer_Ionization_penalty_charging>
0.00059219

> <r_ionizer_Ionization_penalty_neutral>
0

> <i_mmod_Serial_Number-OPLS-2005>
33

> <i_i_glide_lignum>
32

> <r_i_docking_score>
-2.38505

> <r_i_glide_gscore>
-2.38505

> <r_i_glide_lipo>
0

> <r_i_glide_hbond>
-0.330382

> <r_i_glide_metal>
0

> <r_i_glide_eburp>
-2.5

> <r_i_glide_evdw>
-9.10344

> <r_i_glide_ecoul>
-4.93518

> <r_i_glide_erotb>
2.21589

> <r_i_glide_esite>
-0.548763

> <r_i_glide_emodel>
-25.2805

> <r_i_glide_energy>
-14.0386

> <r_i_glide_einternal>
0.498839

> <i_i_glide_confnum>
1

> <i_i_glide_posenum>
939

$$$$
C05844
                    3D
 Structure written by MMmdl.
 29 28  0  0  1  0            999 V2000
    1.2005   -0.1714    2.7619 S   0  0  0  0  0  0
    1.6990    1.5886    2.5638 C   0  0  0  0  0  0
    2.3812   -0.9166    2.3004 O   0  0  0  0  0  0
    0.0162   -0.2974    1.8989 O   0  0  0  0  0  0
    0.7306    2.5280    3.2938 C   0  0  0  0  0  0
    0.9374    3.9062    2.8706 N   0  0  0  0  0  0
   -0.0498    4.7610    2.5678 C   0  0  0  0  0  0
    0.3789    6.1359    2.0457 C   0  0  0  0  0  0
   -1.2425    4.4848    2.6988 O   0  0  0  0  0  0
   -0.4195    6.5858    0.8030 C   0  0  0  0  0  0
   -1.5970    7.5364    1.1199 C   0  0  1  0  0  0
   -2.3981    7.0808    2.3484 C   0  0  0  0  0  0
   -3.4907    6.5033    2.1499 O   0  0  0  0  0  0
    2.7116    1.6890    2.9536 H   0  0  0  0  0  0
    1.7249    1.8048    1.4961 H   0  0  0  0  0  0
   -0.3009    2.2375    3.0889 H   0  0  0  0  0  0
    0.8777    2.4548    4.3724 H   0  0  0  0  0  0
    1.8908    4.2309    2.8028 H   0  0  0  0  0  0
    0.2510    6.8599    2.8510 H   0  0  0  0  0  0
    1.4452    6.1092    1.8169 H   0  0  0  0  0  0
    0.2579    7.0533    0.0859 H   0  0  0  0  0  0
   -0.8197    5.7040    0.3001 H   0  0  0  0  0  0
   -2.2551    7.5886    0.2506 H   0  0  0  0  0  0
   -1.8956    9.5066    1.5509 H   0  0  0  0  0  0
   -0.5169    8.8811    2.1996 H   0  0  0  0  0  0
    0.9181   -0.2937    4.2001 O   0  5  0  0  0  0
   -1.1066    8.9001    1.3797 N   0  3  0  0  0  0
   -0.5817    9.2340    0.5847 H   0  0  0  0  0  0
   -1.8920    7.3014    3.4699 O   0  5  0  0  0  0
  1  2  1  0  0  0
  1  3  2  0  0  0
  1  4  2  0  0  0
  1 26  1  0  0  0
  2  5  1  0  0  0
  2 14  1  0  0  0
  2 15  1  0  0  0
  5  6  1  0  0  0
  5 16  1  0  0  0
  5 17  1  0  0  0
  6  7  1  0  0  0
  6 18  1  0  0  0
  7  8  1  0  0  0
  7  9  2  0  0  0
  8 10  1  0  0  0
  8 19  1  0  0  0
  8 20  1  0  0  0
 10 11  1  0  0  0
 10 21  1  0  0  0
 10 22  1  0  0  0
 11 12  1  0  0  0
 11 23  1  0  0  0
 11 27  1  0  0  0
 12 13  2  0  0  0
 12 29  1  0  0  0
 24 27  1  0  0  0
 25 27  1  0  0  0
 27 28  1  0  0  0
M  CHG  3  26  -1  27   1  29  -1
M  END
> <i_ionizer_Ion_state_n>
7

> <i_ionizer_Tot_Q>
-1

> <s_ionizer_Ion_centers>
26_27_29

> <s_ionizer_Ion_types>
OM_N5_OM

> <s_ionizer_Ion_ctrs_in>
3_14_15

> <r_ionizer_Ionization_penalty>
0.000779526

> <r_ionizer_Ionization_penalty_charging>
0.000779526

> <r_ionizer_Ionization_penalty_neutral>
0

> <s_st_Chirality_1>
11_S_27_12_10_23

> <i_mmod_Serial_Number-OPLS-2005>
812

> <i_i_glide_lignum>
803

> <r_i_docking_score>
-2.36052

> <r_i_glide_gscore>
-2.36052

> <r_i_glide_lipo>
-0.346723

> <r_i_glide_hbond>
-1.35337

> <r_i_glide_metal>
0

> <r_i_glide_eburp>
-2.26928

> <r_i_glide_evdw>
-19.9809

> <r_i_glide_ecoul>
-10.1778

> <r_i_glide_erotb>
3.75571

> <r_i_glide_esite>
0.469396

> <r_i_glide_emodel>
-74.5364

> <r_i_glide_energy>
-30.1586

> <r_i_glide_einternal>
6.58733

> <i_i_glide_confnum>
6

> <i_i_glide_posenum>
391

$$$$
C00460
                    3D
 Structure written by MMmdl.
 39 40  0  0  1  0            999 V2000
   -2.7417    8.0236    3.5794 N   0  0  0  0  0  0
   -2.9082    7.3200    2.2507 C   0  0  2  0  0  0
   -1.6039    7.7391    4.3637 C   0  0  0  0  0  0
   -3.6983    8.9062    4.0661 C   0  0  0  0  0  0
   -2.0719    6.1996    2.2141 O   0  0  0  0  0  0
   -2.4980    8.2453    1.1023 C   0  0  0  0  0  0
   -1.4991    8.3903    5.5929 N   0  0  0  0  0  0
   -0.7286    6.9501    4.0101 O   0  0  0  0  0  0
   -3.5904    9.5269    5.2641 C   0  0  0  0  0  0
   -1.1196    6.3323    1.1586 C   0  0  1  0  0  0
   -1.0579    7.8360    0.8811 C   0  0  1  0  0  0
   -2.4314    9.2892    6.1174 C   0  0  0  0  0  0
    0.2158    5.6943    1.5579 C   0  0  0  0  0  0
   -0.6259    8.1363   -0.4287 O   0  0  0  0  0  0
   -2.2373    9.8086    7.2144 O   0  0  0  0  0  0
   -0.0377    4.5088    2.2848 O   0  0  0  0  0  0
    1.0246    3.9499    3.4901 P   0  0  0  0  0  0
    2.3709    3.3190    2.6603 O   0  0  0  0  0  0
    1.4669    5.1136    4.2926 O   0  0  0  0  0  0
    3.6174    2.2025    2.9780 P   0  0  0  0  0  0
    2.8553    0.6934    3.1602 O   0  0  0  0  0  0
    4.4912    2.1225    1.7835 O   0  0  0  0  0  0
    1.3111   -0.1989    3.1308 P   0  0  0  0  0  0
    0.9872   -0.3649    4.6324 O   0  0  0  0  0  0
   -3.9482    6.9950    2.2003 H   0  0  0  0  0  0
   -4.5808    9.1174    3.4824 H   0  0  0  0  0  0
   -3.1107    8.0045    0.2324 H   0  0  0  0  0  0
   -2.6293    9.2996    1.3492 H   0  0  0  0  0  0
   -0.6854    8.1895    6.1543 H   0  0  0  0  0  0
   -4.3695   10.1999    5.5921 H   0  0  0  0  0  0
   -1.5324    5.8133    0.2917 H   0  0  0  0  0  0
   -0.4189    8.3410    1.6025 H   0  0  0  0  0  0
    0.8251    5.4778    0.6837 H   0  0  0  0  0  0
    0.7815    6.3885    2.1793 H   0  0  0  0  0  0
   -0.5627    9.0810   -0.4930 H   0  0  0  0  0  0
    0.3551    2.8228    4.1789 O   0  5  0  0  0  0
    4.2255    2.5718    4.2780 O   0  5  0  0  0  0
    0.3897    0.7572    2.3402 O   0  5  0  0  0  0
    1.7155   -1.4956    2.3919 O   0  5  0  0  0  0
  1  2  1  0  0  0
  1  3  1  0  0  0
  1  4  1  0  0  0
  2  5  1  0  0  0
  2  6  1  0  0  0
  2 25  1  0  0  0
  3  7  1  0  0  0
  3  8  2  0  0  0
  4  9  2  0  0  0
  4 26  1  0  0  0
  5 10  1  0  0  0
  6 11  1  0  0  0
  6 27  1  0  0  0
  6 28  1  0  0  0
  7 12  1  0  0  0
  7 29  1  0  0  0
  9 12  1  0  0  0
  9 30  1  0  0  0
 10 13  1  0  0  0
 10 11  1  0  0  0
 10 31  1  0  0  0
 11 14  1  0  0  0
 11 32  1  0  0  0
 12 15  2  0  0  0
 13 16  1  0  0  0
 13 33  1  0  0  0
 13 34  1  0  0  0
 14 35  1  0  0  0
 16 17  1  0  0  0
 17 18  1  0  0  0
 17 19  2  0  0  0
 17 36  1  0  0  0
 18 20  1  0  0  0
 20 21  1  0  0  0
 20 22  2  0  0  0
 20 37  1  0  0  0
 21 23  1  0  0  0
 23 24  2  0  0  0
 23 38  1  0  0  0
 23 39  1  0  0  0
M  CHG  4  36  -1  37  -1  38  -1  39  -1
M  END
> <i_ionizer_Ion_state_n>
15

> <i_ionizer_Tot_Q>
-4

> <s_ionizer_Ion_centers>
36_37_38_39

> <s_ionizer_Ion_types>
OM_OM_OM_OM

> <s_ionizer_Ion_ctrs_in>
19_23_26_27

> <r_ionizer_Ionization_penalty>
2.98356e-05

> <r_ionizer_Ionization_penalty_charging>
2.98356e-05

> <r_ionizer_Ionization_penalty_neutral>
0

> <s_st_Chirality_1>
2_R_5_1_6_25

> <s_st_Chirality_2>
10_R_5_11_13_31

> <s_st_Chirality_3>
11_S_14_10_6_32

> <i_mmod_Serial_Number-OPLS-2005>
248

> <i_i_glide_lignum>
246

> <r_i_docking_score>
-2.35714

> <r_i_glide_gscore>
-2.35714

> <r_i_glide_lipo>
-0.558914

> <r_i_glide_hbond>
-0.830366

> <r_i_glide_metal>
0

> <r_i_glide_eburp>
-0.27186

> <r_i_glide_evdw>
-18.5111

> <r_i_glide_ecoul>
-9.71602

> <r_i_glide_erotb>
0.748624

> <r_i_glide_esite>
1.00786

> <r_i_glide_emodel>
-75.2337

> <r_i_glide_energy>
-28.2271

> <r_i_glide_einternal>
7.9482

> <i_i_glide_confnum>
148

> <i_i_glide_posenum>
620

$$$$
C00459
                    3D
 Structure written by MMmdl.
 42 43  0  0  1  0            999 V2000
   -2.8372    7.2300    2.4428 C   0  0  2  0  0  0
   -2.8901    8.3184    3.4966 N   0  0  0  0  0  0
   -1.7928    6.3472    2.7388 O   0  0  0  0  0  0
   -2.5576    7.8311    1.0620 C   0  0  0  0  0  0
   -3.8556    8.2355    4.5204 C   0  0  0  0  0  0
   -2.0511    9.4242    3.4484 C   0  0  0  0  0  0
   -0.8128    6.3654    1.6987 C   0  0  1  0  0  0
   -1.0524    7.6883    0.9649 C   0  0  1  0  0  0
   -3.8846    9.2728    5.4501 N   0  0  0  0  0  0
   -4.6562    7.3057    4.6126 O   0  0  0  0  0  0
   -2.0835   10.4401    4.3468 C   0  0  0  0  0  0
    0.5913    6.2013    2.2953 C   0  0  0  0  0  0
   -0.6179    7.6577   -0.3786 O   0  0  0  0  0  0
   -3.0512   10.3935    5.4453 C   0  0  0  0  0  0
   -1.1607   11.6436    4.2428 C   0  0  0  0  0  0
    1.0192    4.8612    2.1626 O   0  0  0  0  0  0
   -3.1727   11.2419    6.3275 O   0  0  0  0  0  0
    2.5900    4.4794    1.6301 P   0  0  0  0  0  0
    3.1311    3.2101    2.6298 O   0  0  0  0  0  0
    2.4926    3.9735    0.2415 O   0  0  0  0  0  0
    3.9108    1.7068    2.4327 P   0  0  0  0  0  0
    2.6649    0.5543    2.3213 O   0  0  0  0  0  0
    4.6337    1.7137    1.1386 O   0  0  0  0  0  0
    1.1722   -0.0694    3.0733 P   0  0  0  0  0  0
    0.9504    0.9101    4.2473 O   0  0  0  0  0  0
   -3.7828    6.6888    2.5028 H   0  0  0  0  0  0
   -3.0594    7.2162    0.3131 H   0  0  0  0  0  0
   -2.9146    8.8579    0.9709 H   0  0  0  0  0  0
   -1.3355    9.5007    2.6477 H   0  0  0  0  0  0
   -1.0334    5.5278    1.0340 H   0  0  0  0  0  0
   -0.5709    8.5134    1.4842 H   0  0  0  0  0  0
   -4.5725    9.2142    6.1854 H   0  0  0  0  0  0
    1.3044    6.8570    1.8040 H   0  0  0  0  0  0
    0.5778    6.4793    3.3494 H   0  0  0  0  0  0
   -0.7047    8.5367   -0.7235 H   0  0  0  0  0  0
   -0.4761   11.5562    3.3978 H   0  0  0  0  0  0
   -1.7436   12.5541    4.0996 H   0  0  0  0  0  0
   -0.5643   11.7520    5.1489 H   0  0  0  0  0  0
    3.4449    5.6581    1.8999 O   0  5  0  0  0  0
    4.6774    1.4358    3.6716 O   0  5  0  0  0  0
    0.1561    0.0211    1.9127 O   0  5  0  0  0  0
    1.5969   -1.5000    3.4766 O   0  5  0  0  0  0
  1  2  1  0  0  0
  1  3  1  0  0  0
  1  4  1  0  0  0
  1 26  1  0  0  0
  2  5  1  0  0  0
  2  6  1  0  0  0
  3  7  1  0  0  0
  4  8  1  0  0  0
  4 27  1  0  0  0
  4 28  1  0  0  0
  5  9  1  0  0  0
  5 10  2  0  0  0
  6 11  2  0  0  0
  6 29  1  0  0  0
  7 12  1  0  0  0
  7  8  1  0  0  0
  7 30  1  0  0  0
  8 13  1  0  0  0
  8 31  1  0  0  0
  9 14  1  0  0  0
  9 32  1  0  0  0
 11 15  1  0  0  0
 11 14  1  0  0  0
 12 16  1  0  0  0
 12 33  1  0  0  0
 12 34  1  0  0  0
 13 35  1  0  0  0
 14 17  2  0  0  0
 15 36  1  0  0  0
 15 37  1  0  0  0
 15 38  1  0  0  0
 16 18  1  0  0  0
 18 19  1  0  0  0
 18 20  2  0  0  0
 18 39  1  0  0  0
 19 21  1  0  0  0
 21 22  1  0  0  0
 21 23  2  0  0  0
 21 40  1  0  0  0
 22 24  1  0  0  0
 24 25  2  0  0  0
 24 41  1  0  0  0
 24 42  1  0  0  0
M  CHG  4  39  -1  40  -1  41  -1  42  -1
M  END
> <i_ionizer_Ion_state_n>
15

> <i_ionizer_Tot_Q>
-4

> <s_ionizer_Ion_centers>
39_40_41_42

> <s_ionizer_Ion_types>
OM_OM_OM_OM

> <s_ionizer_Ion_ctrs_in>
20_24_27_28

> <r_ionizer_Ionization_penalty>
2.98356e-05

> <r_ionizer_Ionization_penalty_charging>
2.98356e-05

> <r_ionizer_Ionization_penalty_neutral>
0

> <s_st_Chirality_1>
1_R_3_2_4_26

> <s_st_Chirality_2>
7_R_3_8_12_30

> <s_st_Chirality_3>
8_S_13_7_4_31

> <i_mmod_Serial_Number-OPLS-2005>
247

> <i_i_glide_lignum>
245

> <r_i_docking_score>
-2.3082

> <r_i_glide_gscore>
-2.3082

> <r_i_glide_lipo>
-0.546586

> <r_i_glide_hbond>
-0.464174

> <r_i_glide_metal>
0

> <r_i_glide_eburp>
-0.165595

> <r_i_glide_evdw>
-29.4545

> <r_i_glide_ecoul>
-5.39367

> <r_i_glide_erotb>
0.709031

> <r_i_glide_esite>
1.05485

> <r_i_glide_emodel>
-77.6202

> <r_i_glide_energy>
-34.8482

> <r_i_glide_einternal>
8.16559

> <i_i_glide_confnum>
101

> <i_i_glide_posenum>
16

$$$$
C04392
                    3D
 Structure written by MMmdl.
 78 83  0  0  1  0            999 V2000
   -2.8334   13.1228    7.1707 N   0  0  0  0  0  0
   -3.2978   12.5387    8.3213 C   0  0  0  0  0  0
   -3.5516   13.4910    5.9083 C   0  0  2  0  0  0
   -1.4986   13.2551    7.4417 C   0  0  0  0  0  0
   -2.2683   12.3499    9.1973 C   0  0  0  0  0  0
   -4.6073   12.1533    8.6802 N   0  0  0  0  0  0
   -3.8102   12.3101    5.1986 O   0  0  0  0  0  0
   -2.6421   14.3530    5.0258 C   0  0  1  0  0  0
   -2.5243   11.7206   10.5260 C   0  0  0  0  0  0
   -4.8833   11.6252    9.9006 C   0  0  0  0  0  0
   -3.0103   12.2326    4.0162 C   0  0  1  0  0  0
   -1.9252   13.2910    4.2169 C   0  0  1  0  0  0
   -3.3981   15.2426    4.2276 O   0  0  0  0  0  0
   -3.8309   11.4279   10.7501 N   0  0  0  0  0  0
   -1.6213   11.4802   11.3230 O   0  0  0  0  0  0
   -6.0294   11.3246   10.2223 O   0  0  0  0  0  0
   -2.4836   10.8033    3.8114 C   0  0  0  0  0  0
   -1.3984   13.7942    3.0034 O   0  0  0  0  0  0
   -3.5502    9.8859    3.9600 O   0  0  0  0  0  0
   -3.2755    8.2321    4.2647 P   0  0  0  0  0  0
   -3.0913    7.5679    2.7104 O   0  0  0  0  0  0
   -2.0036    8.1091    5.0107 O   0  0  0  0  0  0
   -1.7683    7.3394    1.6687 P   0  0  0  0  0  0
   -1.0445    5.9001    2.1922 O   0  0  0  0  0  0
   -2.2811    7.0673    0.3053 O   0  0  0  0  0  0
    0.1464    5.4984    3.3234 P   0  0  0  0  0  0
    1.6023    5.6772    2.4737 O   0  0  0  0  0  0
    0.0923    6.5027    4.4091 O   0  0  0  0  0  0
    2.0703    5.5469    0.8477 P   0  0  0  0  0  0
    2.1602    3.8666    0.6228 O   0  0  0  0  0  0
    0.9628    6.0520    0.0044 O   0  0  0  0  0  0
    2.9673    3.0767    1.4714 C   0  0  0  0  0  0
    2.3846    1.6632    1.5717 C   0  0  1  0  0  0
    2.6602    0.9367    0.3775 O   0  0  0  0  0  0
    3.0258    0.8176    2.6721 C   0  0  2  0  0  0
    2.8830   -0.4142    0.6510 C   0  0  2  0  0  0
    2.8060   -0.6039    2.1714 C   0  0  2  0  0  0
    2.4667    1.0468    3.9521 O   0  0  0  0  0  0
    4.2549   -0.7546    0.1680 N   0  0  0  0  0  0
    1.5528   -1.1418    2.5544 O   0  0  0  0  0  0
    5.3114    0.1151   -0.0529 C   0  0  0  0  0  0
    4.7688   -1.9654   -0.1381 C   0  0  0  0  0  0
    6.3838   -0.6178   -0.4484 C   0  0  0  0  0  0
    5.3187    1.4539    0.1191 N   0  0  0  0  0  0
    6.0512   -1.9644   -0.5151 N   0  0  0  0  0  0
    7.6581    0.1047   -0.6938 C   0  0  0  0  0  0
    6.4605    2.1584   -0.1014 C   0  0  0  0  0  0
    7.5650    1.4498   -0.4977 N   0  0  0  0  0  0
    8.6982   -0.4579   -1.0285 O   0  0  0  0  0  0
    6.5005    3.3763    0.0495 O   0  0  0  0  0  0
   -4.4605   13.9868    6.2509 H   0  0  0  0  0  0
   -0.8113   13.7025    6.7453 H   0  0  0  0  0  0
   -5.3588   12.3180    8.0261 H   0  0  0  0  0  0
   -1.9442   14.9465    5.6153 H   0  0  0  0  0  0
   -3.6385   12.5200    3.1716 H   0  0  0  0  0  0
   -1.1189   12.8825    4.8220 H   0  0  0  0  0  0
   -2.8274   15.5577    3.5417 H   0  0  0  0  0  0
   -4.0513   11.0262   11.6488 H   0  0  0  0  0  0
   -2.0427   10.7021    2.8210 H   0  0  0  0  0  0
   -1.6984   10.5739    4.5314 H   0  0  0  0  0  0
   -1.4978   13.1197    2.3456 H   0  0  0  0  0  0
    3.9893    3.0416    1.0908 H   0  0  0  0  0  0
    3.0039    3.5465    2.4545 H   0  0  0  0  0  0
    1.3024    1.6991    1.7073 H   0  0  0  0  0  0
    4.0981    1.0160    2.7109 H   0  0  0  0  0  0
    2.2212   -1.0600    0.0727 H   0  0  0  0  0  0
    3.5851   -1.2825    2.5225 H   0  0  0  0  0  0
    2.7551    0.3582    4.5308 H   0  0  0  0  0  0
    1.4877   -1.1226    3.4964 H   0  0  0  0  0  0
    4.1923   -2.8763   -0.0709 H   0  0  0  0  0  0
    4.4778    1.9214    0.4242 H   0  0  0  0  0  0
    8.4066    1.9838   -0.6544 H   0  0  0  0  0  0
   -1.1080   12.8161    8.6403 N   0  3  0  0  0  0
   -0.1872   12.8850    9.0573 H   0  0  0  0  0  0
   -4.5242    7.6932    4.8476 O   0  5  0  0  0  0
   -0.7967    8.4377    1.8713 O   0  5  0  0  0  0
   -0.0622    4.0702    3.6552 O   0  5  0  0  0  0
    3.4279    6.1138    0.6866 O   0  5  0  0  0  0
  1  2  1  0  0  0
  1  3  1  0  0  0
  1  4  1  0  0  0
  2  5  2  0  0  0
  2  6  1  0  0  0
  3  7  1  0  0  0
  3  8  1  0  0  0
  3 51  1  0  0  0
  4 52  1  0  0  0
  4 73  2  0  0  0
  5  9  1  0  0  0
  5 73  1  0  0  0
  6 10  1  0  0  0
  6 53  1  0  0  0
  7 11  1  0  0  0
  8 12  1  0  0  0
  8 13  1  0  0  0
  8 54  1  0  0  0
  9 14  1  0  0  0
  9 15  2  0  0  0
 10 16  2  0  0  0
 10 14  1  0  0  0
 11 17  1  0  0  0
 11 12  1  0  0  0
 11 55  1  0  0  0
 12 18  1  0  0  0
 12 56  1  0  0  0
 13 57  1  0  0  0
 14 58  1  0  0  0
 17 19  1  0  0  0
 17 59  1  0  0  0
 17 60  1  0  0  0
 18 61  1  0  0  0
 19 20  1  0  0  0
 20 21  1  0  0  0
 20 22  2  0  0  0
 20 75  1  0  0  0
 21 23  1  0  0  0
 23 24  1  0  0  0
 23 25  2  0  0  0
 23 76  1  0  0  0
 24 26  1  0  0  0
 26 27  1  0  0  0
 26 28  2  0  0  0
 26 77  1  0  0  0
 27 29  1  0  0  0
 29 30  1  0  0  0
 29 31  2  0  0  0
 29 78  1  0  0  0
 30 32  1  0  0  0
 32 33  1  0  0  0
 32 62  1  0  0  0
 32 63  1  0  0  0
 33 34  1  0  0  0
 33 35  1  0  0  0
 33 64  1  0  0  0
 34 36  1  0  0  0
 35 37  1  0  0  0
 35 38  1  0  0  0
 35 65  1  0  0  0
 36 39  1  0  0  0
 36 37  1  0  0  0
 36 66  1  0  0  0
 37 40  1  0  0  0
 37 67  1  0  0  0
 38 68  1  0  0  0
 39 41  1  0  0  0
 39 42  1  0  0  0
 40 69  1  0  0  0
 41 43  2  0  0  0
 41 44  1  0  0  0
 42 45  2  0  0  0
 42 70  1  0  0  0
 43 46  1  0  0  0
 43 45  1  0  0  0
 44 47  1  0  0  0
 44 71  1  0  0  0
 46 48  1  0  0  0
 46 49  2  0  0  0
 47 50  2  0  0  0
 47 48  1  0  0  0
 48 72  1  0  0  0
 73 74  1  0  0  0
M  CHG  5  73   1  75  -1  76  -1  77  -1  78  -1
M  END
> <i_ionizer_Ion_state_n>
31

> <i_ionizer_Tot_Q>
-3

> <s_ionizer_Ion_centers>
73_75_76_77_78

> <s_ionizer_Ion_types>
N4_OM_OM_OM_OM

> <s_ionizer_Ion_ctrs_in>
9_23_27_31_35

> <r_ionizer_Ionization_penalty>
0.82139

> <r_ionizer_Ionization_penalty_charging>
0.41071

> <r_ionizer_Ionization_penalty_neutral>
0.41068

> <s_st_Chirality_1>
3_R_7_1_8_51

> <s_st_Chirality_2>
8_R_13_3_12_54

> <s_st_Chirality_3>
11_R_7_12_17_55

> <s_st_Chirality_4>
12_R_18_8_11_56

> <s_st_Chirality_5>
33_R_34_35_32_64

> <s_st_Chirality_6>
35_R_38_37_33_65

> <s_st_Chirality_7>
36_R_34_39_37_66

> <s_st_Chirality_8>
37_R_40_36_35_67

> <i_mmod_Serial_Number-OPLS-2005>
594

> <i_i_glide_lignum>
588

> <r_i_docking_score>
-2.29601

> <r_i_glide_gscore>
-2.29601

> <r_i_glide_lipo>
-0.755033

> <r_i_glide_hbond>
-2.01627

> <r_i_glide_metal>
0

> <r_i_glide_eburp>
0.0162709

> <r_i_glide_evdw>
-3.49017

> <r_i_glide_ecoul>
-5.31012

> <r_i_glide_erotb>
0.222033

> <r_i_glide_esite>
1.04722

> <r_i_glide_emodel>
-53.536

> <r_i_glide_energy>
-8.80029

> <r_i_glide_einternal>
13.0863

> <i_i_glide_confnum>
821

> <i_i_glide_posenum>
574

$$$$
C02411
                    3D
 Structure written by MMmdl.
 91 93  0  0  1  0            999 V2000
   15.3533   -4.8667   18.6333 N   0  0  0  0  0  0
   14.9033   -5.0906   17.2241 C   0  0  1  0  0  0
   15.8175   -5.8426   19.4863 C   0  0  0  0  0  0
   15.4101   -3.6982   19.3652 C   0  0  0  0  0  0
   13.3740   -5.2216   17.1759 C   0  0  1  0  0  0
   15.2441   -3.9588   16.4701 O   0  0  0  0  0  0
   16.0946   -5.1849   20.7151 C   0  0  0  0  0  0
   15.9704   -7.1766   19.2402 N   0  0  0  0  0  0
   15.8364   -3.8269   20.5938 N   0  0  0  0  0  0
   13.0352   -4.4101   15.9407 C   0  0  1  0  0  0
   12.9009   -6.5382   16.9874 O   0  0  0  0  0  0
   14.0718   -3.2807   16.0109 C   0  0  1  0  0  0
   16.5555   -6.0151   21.7669 C   0  0  0  0  0  0
   16.4111   -7.8278   20.3201 C   0  0  0  0  0  0
   13.2779   -5.2401   14.8045 O   0  0  0  0  0  0
   13.7266   -2.1562   17.0043 C   0  0  0  0  0  0
   16.7018   -7.3399   21.5310 N   0  0  0  0  0  0
   16.8511   -5.5503   22.9878 N   0  0  0  0  0  0
   12.6988   -4.6671   13.2052 P   0  0  0  0  0  0
   14.6318   -1.0759   16.9039 O   0  0  0  0  0  0
   12.9127   -5.8944   12.2924 O   0  0  0  0  0  0
   14.5667    0.2345   17.9904 P   0  0  0  0  0  0
   15.4140    1.5051   17.2327 O   0  0  0  0  0  0
   13.1505    0.6417   18.1408 O   0  0  0  0  0  0
   15.0855    3.0962   16.7203 P   0  0  0  0  0  0
   14.3416    2.8848   15.2002 O   0  0  0  0  0  0
   14.0903    3.7027   17.6327 O   0  0  0  0  0  0
   13.5797    3.9096   14.5857 C   0  0  0  0  0  0
   12.8847    3.4255   13.2846 C   0  0  0  0  0  0
   13.9491    3.3896   12.1355 C   0  0  2  0  0  0
   12.2547    2.0380   13.5403 C   0  0  0  0  0  0
   11.7511    4.4125   12.9220 C   0  0  0  0  0  0
   13.4294    2.9023   10.7694 C   0  0  0  0  0  0
   15.0626    2.5947   12.5037 O   0  0  0  0  0  0
   13.1645    1.5913   10.6667 N   0  0  0  0  0  0
   13.2466    3.6934    9.8433 O   0  0  0  0  0  0
   12.6704    0.9444    9.4589 C   0  0  0  0  0  0
   11.1978    1.3143    9.2104 C   0  0  0  0  0  0
   10.5633    0.5189    8.0649 C   0  0  0  0  0  0
    9.2561    0.2465    8.1848 N   0  0  0  0  0  0
   11.2380    0.1571    7.1007 O   0  0  0  0  0  0
    8.4687   -0.4529    7.1785 C   0  0  0  0  0  0
    7.2908    0.4108    6.7136 C   0  0  0  0  0  0
    6.4983   -0.2944    5.2379 S   0  0  0  0  0  0
    5.1825    0.9247    4.9906 C   0  0  0  0  0  0
    3.8213    0.3907    4.8318 C   0  0  0  0  0  0
    2.8202    1.1274    4.3166 C   0  0  0  0  0  0
    1.3968    0.6293    4.1420 C   0  0  0  0  0  0
    1.0905    0.0506    2.7570 C   0  0  0  0  0  0
    5.4405    2.1285    4.9580 O   0  0  0  0  0  0
    1.5074   -1.0975    2.4847 O   0  0  0  0  0  0
   15.4480   -5.9694   16.8772 H   0  0  0  0  0  0
   15.1142   -2.7398   18.9641 H   0  0  0  0  0  0
   12.9310   -4.7764   18.0666 H   0  0  0  0  0  0
   12.0031   -4.0579   15.9492 H   0  0  0  0  0  0
   11.9853   -6.4559   16.7550 H   0  0  0  0  0  0
   14.2577   -2.8294   15.0378 H   0  0  0  0  0  0
   16.5468   -8.8923   20.1991 H   0  0  0  0  0  0
   12.7253   -1.7771   16.8281 H   0  0  0  0  0  0
   13.7365   -2.5533   18.0195 H   0  0  0  0  0  0
   17.1701   -6.1847   23.7047 H   0  0  0  0  0  0
   16.7286   -4.5680   23.1884 H   0  0  0  0  0  0
   12.8422    4.2914   15.2931 H   0  0  0  0  0  0
   14.2582    4.7376   14.3790 H   0  0  0  0  0  0
   14.3357    4.4013   12.0003 H   0  0  0  0  0  0
   11.6944    1.6716   12.6810 H   0  0  0  0  0  0
   13.0065    1.2894   13.7908 H   0  0  0  0  0  0
   11.5543    2.0837   14.3726 H   0  0  0  0  0  0
   11.1993    4.0992   12.0358 H   0  0  0  0  0  0
   11.0198    4.4920   13.7269 H   0  0  0  0  0  0
   12.1411    5.4129   12.7324 H   0  0  0  0  0  0
   14.7728    1.7021   12.6111 H   0  0  0  0  0  0
   13.3277    1.0059   11.4730 H   0  0  0  0  0  0
   13.2859    1.2500    8.6107 H   0  0  0  0  0  0
   12.7790   -0.1367    9.5647 H   0  0  0  0  0  0
   10.6121    1.1413   10.1140 H   0  0  0  0  0  0
   11.1231    2.3795    8.9855 H   0  0  0  0  0  0
    8.7786    0.5420    9.0240 H   0  0  0  0  0  0
    9.1063   -0.7028    6.3289 H   0  0  0  0  0  0
    8.1022   -1.3925    7.5951 H   0  0  0  0  0  0
    6.5505    0.4919    7.5107 H   0  0  0  0  0  0
    7.6369    1.4195    6.4836 H   0  0  0  0  0  0
    3.6391   -0.6268    5.1454 H   0  0  0  0  0  0
    2.9941    2.1500    4.0123 H   0  0  0  0  0  0
    1.1933   -0.1278    4.8994 H   0  0  0  0  0  0
    0.7045    1.4518    4.3259 H   0  0  0  0  0  0
   11.2321   -4.2967   13.5177 O   0  5  0  0  0  0
   13.6480   -3.4746   12.9542 O   0  5  0  0  0  0
   15.3338   -0.1474   19.1980 O   0  5  0  0  0  0
   16.3842    3.7766   16.5078 O   0  5  0  0  0  0
    0.4285    0.7786    1.9857 O   0  5  0  0  0  0
  1  2  1  0  0  0
  1  3  1  0  0  0
  1  4  1  0  0  0
  2  5  1  0  0  0
  2  6  1  0  0  0
  2 52  1  0  0  0
  3  7  2  0  0  0
  3  8  1  0  0  0
  4  9  2  0  0  0
  4 53  1  0  0  0
  5 10  1  0  0  0
  5 11  1  0  0  0
  5 54  1  0  0  0
  6 12  1  0  0  0
  7 13  1  0  0  0
  7  9  1  0  0  0
  8 14  2  0  0  0
 10 15  1  0  0  0
 10 12  1  0  0  0
 10 55  1  0  0  0
 11 56  1  0  0  0
 12 16  1  0  0  0
 12 57  1  0  0  0
 13 17  2  0  0  0
 13 18  1  0  0  0
 14 17  1  0  0  0
 14 58  1  0  0  0
 15 19  1  0  0  0
 16 20  1  0  0  0
 16 59  1  0  0  0
 16 60  1  0  0  0
 18 61  1  0  0  0
 18 62  1  0  0  0
 19 21  2  0  0  0
 19 87  1  0  0  0
 19 88  1  0  0  0
 20 22  1  0  0  0
 22 23  1  0  0  0
 22 24  2  0  0  0
 22 89  1  0  0  0
 23 25  1  0  0  0
 25 26  1  0  0  0
 25 27  2  0  0  0
 25 90  1  0  0  0
 26 28  1  0  0  0
 28 29  1  0  0  0
 28 63  1  0  0  0
 28 64  1  0  0  0
 29 30  1  0  0  0
 29 31  1  0  0  0
 29 32  1  0  0  0
 30 33  1  0  0  0
 30 34  1  0  0  0
 30 65  1  0  0  0
 31 66  1  0  0  0
 31 67  1  0  0  0
 31 68  1  0  0  0
 32 69  1  0  0  0
 32 70  1  0  0  0
 32 71  1  0  0  0
 33 35  1  0  0  0
 33 36  2  0  0  0
 34 72  1  0  0  0
 35 37  1  0  0  0
 35 73  1  0  0  0
 37 38  1  0  0  0
 37 74  1  0  0  0
 37 75  1  0  0  0
 38 39  1  0  0  0
 38 76  1  0  0  0
 38 77  1  0  0  0
 39 40  1  0  0  0
 39 41  2  0  0  0
 40 42  1  0  0  0
 40 78  1  0  0  0
 42 43  1  0  0  0
 42 79  1  0  0  0
 42 80  1  0  0  0
 43 44  1  0  0  0
 43 81  1  0  0  0
 43 82  1  0  0  0
 44 45  1  0  0  0
 45 46  1  0  0  0
 45 50  2  0  0  0
 46 47  2  0  0  0
 46 83  1  0  0  0
 47 48  1  0  0  0
 47 84  1  0  0  0
 48 49  1  0  0  0
 48 85  1  0  0  0
 48 86  1  0  0  0
 49 51  2  0  0  0
 49 91  1  0  0  0
M  CHG  5  87  -1  88  -1  89  -1  90  -1  91  -1
M  END
> <i_ionizer_Ion_state_n>
62

> <i_ionizer_Tot_Q>
-5

> <s_ionizer_Ion_centers>
87_88_89_90_91

> <s_ionizer_Ion_types>
OM_OM_OM_OM_OM

> <s_ionizer_Ion_ctrs_in>
21_22_26_30_54

> <r_ionizer_Ionization_penalty>
0.000640761

> <r_ionizer_Ionization_penalty_charging>
0.000622025

> <r_ionizer_Ionization_penalty_neutral>
1.87357e-05

> <s_st_Chirality_1>
2_R_6_1_5_52

> <s_st_Chirality_2>
5_R_11_2_10_54

> <s_st_Chirality_3>
10_R_15_5_12_55

> <s_st_Chirality_4>
12_R_6_10_16_57

> <s_st_Chirality_5>
30_R_34_33_29_65

> <s_st_EZ_1>
45_46_47_48_E

> <i_mmod_Serial_Number-OPLS-2005>
489

> <i_i_glide_lignum>
484

> <r_i_docking_score>
-2.28216

> <r_i_glide_gscore>
-2.28216

> <r_i_glide_lipo>
-0.947398

> <r_i_glide_hbond>
-1.79906

> <r_i_glide_metal>
0

> <r_i_glide_eburp>
-7.95804e-17

> <r_i_glide_evdw>
13.0538

> <r_i_glide_ecoul>
-5.49883

> <r_i_glide_erotb>
0.50944

> <r_i_glide_esite>
-0.539566

> <r_i_glide_emodel>
-7.296

> <r_i_glide_energy>
7.55496

> <r_i_glide_einternal>
11.7392

> <i_i_glide_confnum>
97

> <i_i_glide_posenum>
754

$$$$
C00804
                    3D
 Structure written by MMmdl.
  6  5  0  0  1  0            999 V2000
    0.7274    2.5125    3.5608 C   0  0  0  0  0  0
    1.2814    1.3166    4.1506 C   0  0  0  0  0  0
    0.0993    3.3013    4.2999 O   0  0  0  0  0  0
    1.7043    0.2871    4.6534 C   0  0  0  0  0  0
    2.0707   -0.6131    5.0924 H   0  0  0  0  0  0
    0.9011    2.7049    2.3378 O   0  5  0  0  0  0
  1  2  1  0  0  0
  1  3  2  0  0  0
  1  6  1  0  0  0
  2  4  3  0  0  0
  4  5  1  0  0  0
M  CHG  1   6  -1
M  END
> <i_ionizer_Ion_state_n>
1

> <i_ionizer_Tot_Q>
-1

> <s_ionizer_Ion_centers>
6

> <s_ionizer_Ion_types>
OM

> <s_ionizer_Ion_ctrs_in>
3

> <r_ionizer_Ionization_penalty>
0.00059219

> <r_ionizer_Ionization_penalty_charging>
0.00059219

> <r_ionizer_Ionization_penalty_neutral>
0

> <i_mmod_Serial_Number-OPLS-2005>
338

> <i_i_glide_lignum>
335

> <r_i_docking_score>
-2.26815

> <r_i_glide_gscore>
-2.26815

> <r_i_glide_lipo>
-0.172965

> <r_i_glide_hbond>
-0.7

> <r_i_glide_metal>
0

> <r_i_glide_eburp>
-2.5

> <r_i_glide_evdw>
-4.97028

> <r_i_glide_ecoul>
-5.14484

> <r_i_glide_erotb>
2.3992

> <r_i_glide_esite>
-0.382277

> <r_i_glide_emodel>
-26.2179

> <r_i_glide_energy>
-10.1151

> <r_i_glide_einternal>
-0.132144

> <i_i_glide_confnum>
1

> <i_i_glide_posenum>
337

$$$$
C00700
                    3D
 Structure written by MMmdl.
 43 45  0  0  1  0            999 V2000
   -2.4235    8.0652    3.8739 N   0  0  0  0  0  0
   -3.1962    9.0248    4.5092 C   0  0  0  0  0  0
   -2.6430    7.4736    2.5176 C   0  0  2  0  0  0
   -1.4368    7.8124    4.7619 C   0  0  0  0  0  0
   -2.6420    9.2771    5.7232 C   0  0  0  0  0  0
   -4.3060    9.6269    4.0317 N   0  0  0  0  0  0
   -1.8127    6.3537    2.3959 O   0  0  0  0  0  0
   -2.2147    8.4867    1.4519 C   0  0  1  0  0  0
   -1.5047    8.4994    5.9065 N   0  0  0  0  0  0
   -3.3106   10.2852    6.5874 C   0  0  0  0  0  0
   -4.9487   10.5583    4.7853 C   0  0  0  0  0  0
   -0.8193    6.5642    1.3918 C   0  0  1  0  0  0
   -0.7724    8.0808    1.2114 C   0  0  1  0  0  0
   -3.0137    8.3746    0.2904 O   0  0  0  0  0  0
   -4.4200   10.8360    6.0191 N   0  0  0  0  0  0
   -2.9057   10.5928    7.7065 O   0  0  0  0  0  0
   -5.9594   11.1253    4.3792 O   0  0  0  0  0  0
    0.5072    5.9302    1.8257 C   0  0  0  0  0  0
   -0.2926    8.5049   -0.0496 O   0  0  0  0  0  0
    0.3124    5.2086    3.0249 O   0  0  0  0  0  0
   -0.1463    3.5707    3.0145 P   0  0  0  0  0  0
    0.9018    2.8104    1.9102 O   0  0  0  0  0  0
    0.1075    3.0129    4.3631 O   0  0  0  0  0  0
    2.4616    2.1285    1.9480 P   0  0  0  0  0  0
    2.3771    0.8537    3.0712 O   0  0  0  0  0  0
    2.7516    1.5403    0.6187 O   0  0  0  0  0  0
    1.7186   -0.7702    3.4079 P   0  0  0  0  0  0
    1.3272   -0.6765    4.8994 O   0  0  0  0  0  0
   -3.7004    7.2076    2.4977 H   0  0  0  0  0  0
   -0.6450    7.1037    4.5684 H   0  0  0  0  0  0
   -4.6465    9.3836    3.1125 H   0  0  0  0  0  0
   -2.2923    9.5103    1.8222 H   0  0  0  0  0  0
   -1.1821    6.0895    0.4787 H   0  0  0  0  0  0
   -0.1547    8.5188    1.9925 H   0  0  0  0  0  0
   -3.6732    9.0517    0.3403 H   0  0  0  0  0  0
   -4.9067   11.5278    6.5689 H   0  0  0  0  0  0
    0.9044    5.2790    1.0490 H   0  0  0  0  0  0
    1.2462    6.7127    1.9986 H   0  0  0  0  0  0
   -0.0505    9.4232    0.0344 H   0  0  0  0  0  0
   -1.5169    3.4960    2.4586 O   0  5  0  0  0  0
    3.3842    3.1560    2.4859 O   0  5  0  0  0  0
    0.5476   -0.8664    2.4038 O   0  5  0  0  0  0
    2.9343   -1.6734    3.0959 O   0  5  0  0  0  0
  1  2  1  0  0  0
  1  3  1  0  0  0
  1  4  1  0  0  0
  2  5  2  0  0  0
  2  6  1  0  0  0
  3  7  1  0  0  0
  3  8  1  0  0  0
  3 29  1  0  0  0
  4  9  2  0  0  0
  4 30  1  0  0  0
  5 10  1  0  0  0
  5  9  1  0  0  0
  6 11  1  0  0  0
  6 31  1  0  0  0
  7 12  1  0  0  0
  8 13  1  0  0  0
  8 14  1  0  0  0
  8 32  1  0  0  0
 10 15  1  0  0  0
 10 16  2  0  0  0
 11 17  2  0  0  0
 11 15  1  0  0  0
 12 18  1  0  0  0
 12 13  1  0  0  0
 12 33  1  0  0  0
 13 19  1  0  0  0
 13 34  1  0  0  0
 14 35  1  0  0  0
 15 36  1  0  0  0
 18 20  1  0  0  0
 18 37  1  0  0  0
 18 38  1  0  0  0
 19 39  1  0  0  0
 20 21  1  0  0  0
 21 22  1  0  0  0
 21 23  2  0  0  0
 21 40  1  0  0  0
 22 24  1  0  0  0
 24 25  1  0  0  0
 24 26  2  0  0  0
 24 41  1  0  0  0
 25 27  1  0  0  0
 27 28  2  0  0  0
 27 42  1  0  0  0
 27 43  1  0  0  0
M  CHG  4  40  -1  41  -1  42  -1  43  -1
M  END
> <i_ionizer_Ion_state_n>
30

> <i_ionizer_Tot_Q>
-4

> <s_ionizer_Ion_centers>
40_41_42_43

> <s_ionizer_Ion_types>
OM_OM_OM_OM

> <s_ionizer_Ion_ctrs_in>
23_27_30_31

> <r_ionizer_Ionization_penalty>
0.41071

> <r_ionizer_Ionization_penalty_charging>
2.98356e-05

> <r_ionizer_Ionization_penalty_neutral>
0.41068

> <s_st_Chirality_1>
3_R_7_1_8_29

> <s_st_Chirality_2>
8_R_14_3_13_32

> <s_st_Chirality_3>
12_R_7_13_18_33

> <s_st_Chirality_4>
13_R_19_8_12_34

> <i_mmod_Serial_Number-OPLS-2005>
323

> <i_i_glide_lignum>
320

> <r_i_docking_score>
-2.24178

> <r_i_glide_gscore>
-2.24178

> <r_i_glide_lipo>
-0.458311

> <r_i_glide_hbond>
-2.27457

> <r_i_glide_metal>
0

> <r_i_glide_eburp>
0.274568

> <r_i_glide_evdw>
-5.58904

> <r_i_glide_ecoul>
-15.2486

> <r_i_glide_erotb>
0.607643

> <r_i_glide_esite>
1.58088

> <r_i_glide_emodel>
-61.1321

> <r_i_glide_energy>
-20.8377

> <r_i_glide_einternal>
11.5945

> <i_i_glide_confnum>
178

> <i_i_glide_posenum>
241

$$$$
C03772
                    3D
 Structure written by MMmdl.
 49 52  0  0  1  0            999 V2000
    2.0161    3.9274    2.0032 C   0  0  2  0  0  0
    1.4293    2.5634    2.4678 C   0  0  1  0  0  0
    0.8716    4.9403    1.8350 C   0  0  1  0  0  0
    2.7855    3.7622    0.6730 C   0  0  0  0  0  0
    2.5384    1.4793    2.7186 C   0  0  2  0  0  0
    0.3974    2.6921    3.6283 C   0  0  0  0  0  0
    0.0490    5.1309    3.1113 C   0  0  2  0  0  0
    1.1703    6.3591    1.3351 C   0  0  0  0  0  0
    3.4806    2.3987    0.5270 C   0  0  0  0  0  0
    3.8305    1.8107    1.9003 C   0  0  2  0  0  0
    1.9451    0.1142    2.2763 C   0  0  0  0  0  0
    2.9393    1.4095    4.2083 C   0  0  0  0  0  0
   -0.6552    3.8003    3.4136 C   0  0  0  0  0  0
   -0.8471    6.2755    2.6564 C   0  0  0  0  0  0
    0.8698    5.6267    4.3241 C   0  0  0  0  0  0
   -0.1415    7.1223    1.5998 C   0  0  0  0  0  0
    4.8395    0.6439    1.8024 C   0  0  0  0  0  0
    2.9462   -1.0511    2.2446 C   0  0  0  0  0  0
   -1.9786    6.4962    3.0839 O   0  0  0  0  0  0
    4.1723   -0.6733    1.4245 C   0  0  0  0  0  0
    4.6139   -1.3987    0.5361 O   0  0  0  0  0  0
    2.7114    4.2849    2.7626 H   0  0  0  0  0  0
    0.8451    2.2237    1.6116 H   0  0  0  0  0  0
    0.2053    4.5034    1.0878 H   0  0  0  0  0  0
    4.3574    2.6035    2.4330 H   0  0  0  0  0  0
    2.1115    3.8941   -0.1739 H   0  0  0  0  0  0
    3.5243    4.5603    0.5979 H   0  0  0  0  0  0
   -0.1091    1.7382    3.7753 H   0  0  0  0  0  0
    0.9142    2.9045    4.5629 H   0  0  0  0  0  0
    1.9907    6.8027    1.9000 H   0  0  0  0  0  0
    1.4426    6.3703    0.2797 H   0  0  0  0  0  0
    2.8286    1.7077   -0.0078 H   0  0  0  0  0  0
    4.3759    2.5133   -0.0843 H   0  0  0  0  0  0
    1.1108   -0.1499    2.9265 H   0  0  0  0  0  0
    1.5200    0.2131    1.2769 H   0  0  0  0  0  0
    3.7602    0.7116    4.3707 H   0  0  0  0  0  0
    3.2620    2.3848    4.5735 H   0  0  0  0  0  0
    2.1116    1.0733    4.8328 H   0  0  0  0  0  0
   -1.2834    3.8947    4.2998 H   0  0  0  0  0  0
   -1.3152    3.5284    2.5890 H   0  0  0  0  0  0
    1.6926    4.9550    4.5649 H   0  0  0  0  0  0
    1.3000    6.6130    4.1473 H   0  0  0  0  0  0
    0.2404    5.7000    5.2115 H   0  0  0  0  0  0
    0.0375    8.1376    1.9537 H   0  0  0  0  0  0
   -0.7604    7.1654    0.7035 H   0  0  0  0  0  0
    5.6253    0.8770    1.0834 H   0  0  0  0  0  0
    5.3328    0.5011    2.7636 H   0  0  0  0  0  0
    3.2655   -1.3075    3.2547 H   0  0  0  0  0  0
    2.4800   -1.9401    1.8193 H   0  0  0  0  0  0
  1  2  1  0  0  0
  1  3  1  0  0  0
  1  4  1  0  0  0
  1 22  1  0  0  0
  2  5  1  0  0  0
  2  6  1  0  0  0
  2 23  1  0  0  0
  3  7  1  0  0  0
  3  8  1  0  0  0
  3 24  1  0  0  0
  4  9  1  0  0  0
  4 26  1  0  0  0
  4 27  1  0  0  0
  5 10  1  0  0  0
  5 11  1  0  0  0
  5 12  1  0  0  0
  6 13  1  0  0  0
  6 28  1  0  0  0
  6 29  1  0  0  0
  7 14  1  0  0  0
  7 15  1  0  0  0
  7 13  1  0  0  0
  8 16  1  0  0  0
  8 30  1  0  0  0
  8 31  1  0  0  0
  9 10  1  0  0  0
  9 32  1  0  0  0
  9 33  1  0  0  0
 10 17  1  0  0  0
 10 25  1  0  0  0
 11 18  1  0  0  0
 11 34  1  0  0  0
 11 35  1  0  0  0
 12 36  1  0  0  0
 12 37  1  0  0  0
 12 38  1  0  0  0
 13 39  1  0  0  0
 13 40  1  0  0  0
 14 19  2  0  0  0
 14 16  1  0  0  0
 15 41  1  0  0  0
 15 42  1  0  0  0
 15 43  1  0  0  0
 16 44  1  0  0  0
 16 45  1  0  0  0
 17 20  1  0  0  0
 17 46  1  0  0  0
 17 47  1  0  0  0
 18 20  1  0  0  0
 18 48  1  0  0  0
 18 49  1  0  0  0
 20 21  2  0  0  0
M  END
> <i_ionizer_Ion_state_n>
0

> <i_ionizer_Tot_Q>
0

> <s_ionizer_Ion_centers>


> <s_ionizer_Ion_types>


> <s_ionizer_Ion_ctrs_in>


> <r_ionizer_Ionization_penalty>
0

> <r_ionizer_Ionization_penalty_charging>
0

> <r_ionizer_Ionization_penalty_neutral>
0

> <s_st_Chirality_1>
1_R_3_2_4_22

> <s_st_Chirality_2>
2_S_5_1_6_23

> <s_st_Chirality_3>
3_S_7_1_8_24

> <s_st_Chirality_4>
5_S_2_10_11_12

> <s_st_Chirality_5>
7_S_14_3_13_15

> <s_st_Chirality_6>
10_R_5_17_9_25

> <i_mmod_Serial_Number-OPLS-2005>
566

> <i_i_glide_lignum>
560

> <r_i_docking_score>
-2.22014

> <r_i_glide_gscore>
-2.22014

> <r_i_glide_lipo>
-1.51634

> <r_i_glide_hbond>
0

> <r_i_glide_metal>
0

> <r_i_glide_eburp>
-1.60277

> <r_i_glide_evdw>
12.5718

> <r_i_glide_ecoul>
3.53912

> <r_i_glide_erotb>
0

> <r_i_glide_esite>
-0.460692

> <r_i_glide_emodel>
11.6845

> <r_i_glide_energy>
16.111

> <r_i_glide_einternal>
0

> <i_i_glide_confnum>
1

> <i_i_glide_posenum>
185

$$$$
C05118
                    3D
 Structure written by MMmdl.
 43 42  0  0  1  0            999 V2000
    3.6593    2.1622    2.0978 C   0  0  0  0  0  0
    4.1375    0.4282    1.8232 S   0  0  0  0  0  0
    3.0669    2.3863    3.5016 C   0  0  0  0  0  0
    5.1632    0.6113    0.3392 C   0  0  0  0  0  0
    1.5903    1.9624    3.6299 C   0  0  1  0  0  0
    5.7072   -0.6969   -0.2488 C   0  0  1  0  0  0
    5.4101    1.7001   -0.1795 O   0  0  0  0  0  0
    0.6732    2.7803    2.6983 C   0  0  0  0  0  0
    1.4458    0.1998    3.2008 S   0  0  0  0  0  0
    7.0431   -1.0729    0.4263 C   0  0  0  0  0  0
    4.6561   -1.8194   -0.1567 C   0  0  0  0  0  0
    0.6209    4.2821    3.0309 C   0  0  0  0  0  0
    8.2042   -0.1408    0.0545 C   0  0  0  0  0  0
   -0.5043    5.0101    2.2810 C   0  0  0  0  0  0
   -0.5824    6.5044    2.6445 C   0  0  0  0  0  0
   -1.8424    7.1929    2.1096 C   0  0  0  0  0  0
   -1.7522    8.4998    1.8558 N   0  0  0  0  0  0
   -2.8821    6.5648    1.9210 O   0  0  0  0  0  0
    2.9683    2.4880    1.3198 H   0  0  0  0  0  0
    4.5594    2.7643    1.9764 H   0  0  0  0  0  0
    3.6544    1.8167    4.2216 H   0  0  0  0  0  0
    3.1803    3.4328    3.7882 H   0  0  0  0  0  0
    1.2673    2.0999    4.6626 H   0  0  0  0  0  0
    5.8989   -0.5105   -1.3063 H   0  0  0  0  0  0
    1.0309    2.6743    1.6733 H   0  0  0  0  0  0
   -0.3341    2.3613    2.7077 H   0  0  0  0  0  0
    2.3160   -0.2393    4.1143 H   0  0  0  0  0  0
    6.9257   -1.0507    1.5111 H   0  0  0  0  0  0
    7.3103   -2.1003    0.1745 H   0  0  0  0  0  0
    4.9601   -2.6935   -0.7322 H   0  0  0  0  0  0
    4.5009   -2.1396    0.8744 H   0  0  0  0  0  0
    3.6926   -1.4955   -0.5525 H   0  0  0  0  0  0
    0.4823    4.4236    4.1028 H   0  0  0  0  0  0
    1.5776    4.7420    2.7802 H   0  0  0  0  0  0
    7.9745    0.8950    0.3056 H   0  0  0  0  0  0
    9.1097   -0.4190    0.5941 H   0  0  0  0  0  0
    8.4312   -0.1871   -1.0105 H   0  0  0  0  0  0
   -0.3476    4.9003    1.2068 H   0  0  0  0  0  0
   -1.4574    4.5285    2.5053 H   0  0  0  0  0  0
   -0.5507    6.6163    3.7292 H   0  0  0  0  0  0
    0.2884    7.0286    2.2492 H   0  0  0  0  0  0
   -2.5584    8.9927    1.5004 H   0  0  0  0  0  0
   -0.8846    8.9897    2.0178 H   0  0  0  0  0  0
  1  2  1  0  0  0
  1  3  1  0  0  0
  1 19  1  0  0  0
  1 20  1  0  0  0
  2  4  1  0  0  0
  3  5  1  0  0  0
  3 21  1  0  0  0
  3 22  1  0  0  0
  4  6  1  0  0  0
  4  7  2  0  0  0
  5  8  1  0  0  0
  5  9  1  0  0  0
  5 23  1  0  0  0
  6 10  1  0  0  0
  6 11  1  0  0  0
  6 24  1  0  0  0
  8 12  1  0  0  0
  8 25  1  0  0  0
  8 26  1  0  0  0
  9 27  1  0  0  0
 10 13  1  0  0  0
 10 28  1  0  0  0
 10 29  1  0  0  0
 11 30  1  0  0  0
 11 31  1  0  0  0
 11 32  1  0  0  0
 12 14  1  0  0  0
 12 33  1  0  0  0
 12 34  1  0  0  0
 13 35  1  0  0  0
 13 36  1  0  0  0
 13 37  1  0  0  0
 14 15  1  0  0  0
 14 38  1  0  0  0
 14 39  1  0  0  0
 15 16  1  0  0  0
 15 40  1  0  0  0
 15 41  1  0  0  0
 16 17  1  0  0  0
 16 18  2  0  0  0
 17 42  1  0  0  0
 17 43  1  0  0  0
M  END
> <i_ionizer_Ion_state_n>
0

> <i_ionizer_Tot_Q>
0

> <s_ionizer_Ion_centers>


> <s_ionizer_Ion_types>


> <s_ionizer_Ion_ctrs_in>


> <r_ionizer_Ionization_penalty>
0.00187065

> <r_ionizer_Ionization_penalty_charging>
0

> <r_ionizer_Ionization_penalty_neutral>
0.00187065

> <s_st_Chirality_1>
5_R_9_3_8_23

> <s_st_Chirality_2>
6_R_4_10_11_24

> <i_mmod_Serial_Number-OPLS-2005>
625

> <i_i_glide_lignum>
618

> <r_i_docking_score>
-2.16966

> <r_i_glide_gscore>
-2.16966

> <r_i_glide_lipo>
-0.916637

> <r_i_glide_hbond>
-0.49248

> <r_i_glide_metal>
0

> <r_i_glide_eburp>
-1.57971

> <r_i_glide_evdw>
-36.1443

> <r_i_glide_ecoul>
-6.28808

> <r_i_glide_erotb>
4.41691

> <r_i_glide_esite>
-0.0773843

> <r_i_glide_emodel>
-56.3843

> <r_i_glide_energy>
-42.4324

> <r_i_glide_einternal>
9.99665

> <i_i_glide_confnum>
315

> <i_i_glide_posenum>
894

$$$$
C00286
                    3D
 Structure written by MMmdl.
 43 45  0  0  1  0            999 V2000
   -3.4530    9.0604    4.7169 C   0  0  0  0  0  0
   -2.6533    8.1883    4.0092 N   0  0  0  0  0  0
   -2.7914    9.3324    5.8977 C   0  0  0  0  0  0
   -4.6665    9.5600    4.3256 N   0  0  0  0  0  0
   -2.9711    7.6160    2.6628 C   0  0  2  0  0  0
   -1.5483    7.9966    4.8079 C   0  0  0  0  0  0
   -1.5844    8.6442    5.9395 N   0  0  0  0  0  0
   -3.3882   10.2205    6.8552 C   0  0  0  0  0  0
   -5.2144   10.3799    5.2040 C   0  0  0  0  0  0
   -2.4026    6.3415    2.5847 O   0  0  0  0  0  0
   -2.3152    8.4630    1.5733 C   0  0  0  0  0  0
   -4.6253   10.7121    6.4211 N   0  0  0  0  0  0
   -2.9520   10.5706    7.9498 O   0  0  0  0  0  0
   -6.4020   10.9344    4.9311 N   0  0  0  0  0  0
   -1.2982    6.3448    1.6775 C   0  0  1  0  0  0
   -0.9475    7.8217    1.4786 C   0  0  1  0  0  0
   -0.1571    5.4678    2.2061 C   0  0  0  0  0  0
   -0.3434    8.0836    0.2300 O   0  0  0  0  0  0
   -0.5785    4.1188    2.2173 O   0  0  0  0  0  0
    0.4099    2.8771    2.8298 P   0  0  0  0  0  0
    1.9460    3.1425    2.1477 O   0  0  0  0  0  0
    0.5108    3.0481    4.2978 O   0  0  0  0  0  0
    3.1344    2.2046    1.3690 P   0  0  0  0  0  0
    3.8685    1.2823    2.5948 O   0  0  0  0  0  0
    2.4598    1.2650    0.4421 O   0  0  0  0  0  0
    3.6103    0.3136    4.0707 P   0  0  0  0  0  0
    3.3134   -1.0935    3.5060 O   0  0  0  0  0  0
   -4.0601    7.5826    2.6171 H   0  0  0  0  0  0
   -0.7159    7.3650    4.5343 H   0  0  0  0  0  0
   -2.8772    8.3300    0.6477 H   0  0  0  0  0  0
   -2.2954    9.5230    1.8298 H   0  0  0  0  0  0
   -5.1007   11.3458    7.0453 H   0  0  0  0  0  0
   -6.8573   10.7183    4.0560 H   0  0  0  0  0  0
   -6.8403   11.5660    5.5848 H   0  0  0  0  0  0
   -1.6761    5.9264    0.7429 H   0  0  0  0  0  0
   -0.3119    8.1848    2.2845 H   0  0  0  0  0  0
    0.7458    5.5841    1.6103 H   0  0  0  0  0  0
    0.0888    5.7683    3.2247 H   0  0  0  0  0  0
   -0.0384    8.9859    0.2450 H   0  0  0  0  0  0
   -0.1040    1.5950    2.2954 O   0  5  0  0  0  0
    4.1492    3.1358    0.8216 O   0  5  0  0  0  0
    4.9552    0.4759    4.8145 O   0  5  0  0  0  0
    2.4061    1.0389    4.7138 O   0  5  0  0  0  0
  1  2  1  0  0  0
  1  3  2  0  0  0
  1  4  1  0  0  0
  2  5  1  0  0  0
  2  6  1  0  0  0
  3  7  1  0  0  0
  3  8  1  0  0  0
  4  9  2  0  0  0
  5 10  1  0  0  0
  5 11  1  0  0  0
  5 28  1  0  0  0
  6  7  2  0  0  0
  6 29  1  0  0  0
  8 12  1  0  0  0
  8 13  2  0  0  0
  9 14  1  0  0  0
  9 12  1  0  0  0
 10 15  1  0  0  0
 11 16  1  0  0  0
 11 30  1  0  0  0
 11 31  1  0  0  0
 12 32  1  0  0  0
 14 33  1  0  0  0
 14 34  1  0  0  0
 15 17  1  0  0  0
 15 16  1  0  0  0
 15 35  1  0  0  0
 16 18  1  0  0  0
 16 36  1  0  0  0
 17 19  1  0  0  0
 17 37  1  0  0  0
 17 38  1  0  0  0
 18 39  1  0  0  0
 19 20  1  0  0  0
 20 21  1  0  0  0
 20 22  2  0  0  0
 20 40  1  0  0  0
 21 23  1  0  0  0
 23 24  1  0  0  0
 23 25  2  0  0  0
 23 41  1  0  0  0
 24 26  1  0  0  0
 26 27  2  0  0  0
 26 42  1  0  0  0
 26 43  1  0  0  0
M  CHG  4  40  -1  41  -1  42  -1  43  -1
M  END
> <i_ionizer_Ion_state_n>
30

> <i_ionizer_Tot_Q>
-4

> <s_ionizer_Ion_centers>
40_41_42_43

> <s_ionizer_Ion_types>
OM_OM_OM_OM

> <s_ionizer_Ion_ctrs_in>
22_26_29_30

> <r_ionizer_Ionization_penalty>
4.85714e-05

> <r_ionizer_Ionization_penalty_charging>
2.98356e-05

> <r_ionizer_Ionization_penalty_neutral>
1.87357e-05

> <s_st_Chirality_1>
5_R_10_2_11_28

> <s_st_Chirality_2>
15_R_10_16_17_35

> <s_st_Chirality_3>
16_S_18_15_11_36

> <i_mmod_Serial_Number-OPLS-2005>
179

> <i_i_glide_lignum>
177

> <r_i_docking_score>
-2.16583

> <r_i_glide_gscore>
-2.16583

> <r_i_glide_lipo>
-0.44531

> <r_i_glide_hbond>
-1.12371

> <r_i_glide_metal>
0

> <r_i_glide_eburp>
-7.78457e-17

> <r_i_glide_evdw>
-22.6151

> <r_i_glide_ecoul>
-4.88079

> <r_i_glide_erotb>
0.645842

> <r_i_glide_esite>
1.05464

> <r_i_glide_emodel>
-56.7124

> <r_i_glide_energy>
-27.4959

> <r_i_glide_einternal>
1.45672

> <i_i_glide_confnum>
86

> <i_i_glide_posenum>
723

$$$$
C00179
                    3D
 Structure written by MMmdl.
 25 24  0  0  1  0            999 V2000
    4.3262    0.7630    3.8816 C   0  0  0  0  0  0
    3.2406   -0.1428    4.2821 N   0  0  0  0  0  0
    4.8391    1.5804    5.0758 C   0  0  0  0  0  0
    2.0200   -0.1990    3.7212 C   0  0  0  0  0  0
    5.4021    0.6963    6.1994 C   0  0  0  0  0  0
    1.1005   -1.0245    4.2349 N   0  0  0  0  0  0
    6.7417    0.0462    5.8229 C   0  0  0  0  0  0
    3.9591    1.4284    3.0994 H   0  0  0  0  0  0
    5.1370    0.1731    3.4527 H   0  0  0  0  0  0
    3.4445   -0.7712    5.0459 H   0  0  0  0  0  0
    5.6120    2.2717    4.7368 H   0  0  0  0  0  0
    4.0281    2.1947    5.4698 H   0  0  0  0  0  0
    5.5292    1.2970    7.1013 H   0  0  0  0  0  0
    4.6763   -0.0804    6.4449 H   0  0  0  0  0  0
    0.1783   -1.0805    3.8274 H   0  0  0  0  0  0
    1.3208   -1.5994    5.0355 H   0  0  0  0  0  0
    0.7820    0.5010    2.2474 H   0  0  0  0  0  0
    6.7175   -0.3016    4.7895 H   0  0  0  0  0  0
    7.5510    0.7735    5.8985 H   0  0  0  0  0  0
    7.9361   -1.5015    6.4257 H   0  0  0  0  0  0
    7.1089   -0.7852    7.6577 H   0  0  0  0  0  0
    1.7028    0.5536    2.6583 N   0  3  0  0  0  0
    2.3871    1.1805    2.2609 H   0  0  0  0  0  0
    7.0513   -1.0972    6.6987 N   0  3  0  0  0  0
    6.3259   -1.7953    6.6158 H   0  0  0  0  0  0
  1  2  1  0  0  0
  1  3  1  0  0  0
  1  8  1  0  0  0
  1  9  1  0  0  0
  2  4  1  0  0  0
  2 10  1  0  0  0
  3  5  1  0  0  0
  3 11  1  0  0  0
  3 12  1  0  0  0
  4  6  1  0  0  0
  4 22  2  0  0  0
  5  7  1  0  0  0
  5 13  1  0  0  0
  5 14  1  0  0  0
  6 15  1  0  0  0
  6 16  1  0  0  0
  7 18  1  0  0  0
  7 19  1  0  0  0
  7 24  1  0  0  0
 17 22  1  0  0  0
 20 24  1  0  0  0
 21 24  1  0  0  0
 22 23  1  0  0  0
 24 25  1  0  0  0
M  CHG  2  22   1  24   1
M  END
> <i_ionizer_Ion_state_n>
3

> <i_ionizer_Tot_Q>
2

> <s_ionizer_Ion_centers>
22_24

> <s_ionizer_Ion_types>
N4_N5

> <s_ionizer_Ion_ctrs_in>
7_9

> <r_ionizer_Ionization_penalty>
0.000189204

> <r_ionizer_Ionization_penalty_charging>
0.000189204

> <r_ionizer_Ionization_penalty_neutral>
0

> <i_mmod_Serial_Number-OPLS-2005>
125

> <i_i_glide_lignum>
123

> <r_i_docking_score>
-2.12331

> <r_i_glide_gscore>
-2.12331

> <r_i_glide_lipo>
-0.569584

> <r_i_glide_hbond>
-1.41234

> <r_i_glide_metal>
0

> <r_i_glide_eburp>
-2.5

> <r_i_glide_evdw>
-7.66633

> <r_i_glide_ecoul>
-9.29972

> <r_i_glide_erotb>
3.64815

> <r_i_glide_esite>
0.253743

> <r_i_glide_emodel>
-39.4385

> <r_i_glide_energy>
-16.966

> <r_i_glide_einternal>
4.24663

> <i_i_glide_confnum>
40

> <i_i_glide_posenum>
206

$$$$
C00037
                    3D
 Structure written by MMmdl.
 10  9  0  0  1  0            999 V2000
    1.0550    0.1452    3.1419 C   0  0  0  0  0  0
    2.3131   -0.6831    3.4035 C   0  0  0  0  0  0
    0.9229    1.2102    3.7854 O   0  0  0  0  0  0
    2.0866   -1.7505    3.4130 H   0  0  0  0  0  0
    3.0374   -0.5063    2.6079 H   0  0  0  0  0  0
    3.7488   -0.8183    4.8595 H   0  0  0  0  0  0
    3.0978    0.6921    4.6799 H   0  0  0  0  0  0
    0.2447   -0.2997    2.3008 O   0  5  0  0  0  0
    2.8988   -0.2982    4.6979 N   0  3  0  0  0  0
    2.2325   -0.4902    5.4319 H   0  0  0  0  0  0
  1  2  1  0  0  0
  1  3  2  0  0  0
  1  8  1  0  0  0
  2  4  1  0  0  0
  2  5  1  0  0  0
  2  9  1  0  0  0
  6  9  1  0  0  0
  7  9  1  0  0  0
  9 10  1  0  0  0
M  CHG  2   8  -1   9   1
M  END
> <i_ionizer_Ion_state_n>
3

> <i_ionizer_Tot_Q>
0

> <s_ionizer_Ion_centers>
8_9

> <s_ionizer_Ion_types>
OM_N5

> <s_ionizer_Ion_ctrs_in>
3_5

> <r_ionizer_Ionization_penalty>
0.000779521

> <r_ionizer_Ionization_penalty_charging>
0.000779521

> <r_ionizer_Ionization_penalty_neutral>
0

> <i_mmod_Serial_Number-OPLS-2005>
27

> <i_i_glide_lignum>
27

> <r_i_docking_score>
-2.07719

> <r_i_glide_gscore>
-2.07719

> <r_i_glide_lipo>
-0.0942204

> <r_i_glide_hbond>
-0.588317

> <r_i_glide_metal>
0

> <r_i_glide_eburp>
-2.5

> <r_i_glide_evdw>
-5.98154

> <r_i_glide_ecoul>
-4.47726

> <r_i_glide_erotb>
2.13059

> <r_i_glide_esite>
-0.0989892

> <r_i_glide_emodel>
-26.3203

> <r_i_glide_energy>
-10.4588

> <r_i_glide_einternal>
0.142977

> <i_i_glide_confnum>
4

> <i_i_glide_posenum>
731

$$$$
C00670
                    3D
 Structure written by MMmdl.
 36 35  0  0  1  0            999 V2000
    1.1537    3.6118    3.1009 P   0  0  0  0  0  0
    1.3894    2.1245    2.3056 O   0  0  0  0  0  0
    0.5510    4.6331    1.8780 O   0  0  0  0  0  0
    0.1005    3.4427    4.1274 O   0  0  0  0  0  0
    1.3921    0.8832    2.9903 C   0  0  0  0  0  0
   -0.2373    5.7720    2.1703 C   0  0  0  0  0  0
    1.5657   -0.3174    2.0370 C   0  0  1  0  0  0
   -0.3242    6.7243    0.9535 C   0  0  0  0  0  0
    2.8332   -0.1920    1.1739 C   0  0  0  0  0  0
    1.7041   -1.4976    2.8022 O   0  0  0  0  0  0
   -1.3922    7.7688    1.0214 N   0  3  0  0  0  0
    2.7250    0.9211    0.3094 O   0  0  0  0  0  0
   -2.7035    7.0825    1.1622 C   0  0  0  0  0  0
   -1.1993    8.6582    2.1971 C   0  0  0  0  0  0
   -1.4196    8.5845   -0.2215 C   0  0  0  0  0  0
    2.2324    0.9307    3.6829 H   0  0  0  0  0  0
    0.4969    0.7845    3.6061 H   0  0  0  0  0  0
   -1.2208    5.4104    2.4664 H   0  0  0  0  0  0
    0.2000    6.2664    3.0374 H   0  0  0  0  0  0
    0.6945   -0.3954    1.3849 H   0  0  0  0  0  0
    0.6336    7.2295    0.8232 H   0  0  0  0  0  0
   -0.4681    6.1218    0.0550 H   0  0  0  0  0  0
    3.7081   -0.0346    1.8055 H   0  0  0  0  0  0
    3.0126   -1.0993    0.5953 H   0  0  0  0  0  0
    2.4567   -1.3891    3.3638 H   0  0  0  0  0  0
    3.3136    0.7947   -0.4193 H   0  0  0  0  0  0
   -3.5250    7.7985    1.2177 H   0  0  0  0  0  0
   -2.8995    6.4243    0.3141 H   0  0  0  0  0  0
   -2.7366    6.4741    2.0674 H   0  0  0  0  0  0
   -2.0404    9.3440    2.3104 H   0  0  0  0  0  0
   -1.1174    8.0811    3.1193 H   0  0  0  0  0  0
   -0.3033    9.2719    2.1038 H   0  0  0  0  0  0
   -2.2693    9.2690   -0.2218 H   0  0  0  0  0  0
   -0.5227    9.1944   -0.3301 H   0  0  0  0  0  0
   -1.5042    7.9523   -1.1068 H   0  0  0  0  0  0
    2.4800    4.1326    3.4982 O   0  5  0  0  0  0
  1  2  1  0  0  0
  1  3  1  0  0  0
  1  4  2  0  0  0
  1 36  1  0  0  0
  2  5  1  0  0  0
  3  6  1  0  0  0
  5  7  1  0  0  0
  5 16  1  0  0  0
  5 17  1  0  0  0
  6  8  1  0  0  0
  6 18  1  0  0  0
  6 19  1  0  0  0
  7  9  1  0  0  0
  7 10  1  0  0  0
  7 20  1  0  0  0
  8 11  1  0  0  0
  8 21  1  0  0  0
  8 22  1  0  0  0
  9 12  1  0  0  0
  9 23  1  0  0  0
  9 24  1  0  0  0
 10 25  1  0  0  0
 11 13  1  0  0  0
 11 14  1  0  0  0
 11 15  1  0  0  0
 12 26  1  0  0  0
 13 27  1  0  0  0
 13 28  1  0  0  0
 13 29  1  0  0  0
 14 30  1  0  0  0
 14 31  1  0  0  0
 14 32  1  0  0  0
 15 33  1  0  0  0
 15 34  1  0  0  0
 15 35  1  0  0  0
M  CHG  2  11   1  36  -1
M  END
> <i_ionizer_Ion_state_n>
1

> <i_ionizer_Tot_Q>
0

> <s_ionizer_Ion_centers>
36

> <s_ionizer_Ion_types>
OM

> <s_ionizer_Ion_ctrs_in>
4

> <r_ionizer_Ionization_penalty>
7.45891e-06

> <r_ionizer_Ionization_penalty_charging>
7.45891e-06

> <r_ionizer_Ionization_penalty_neutral>
0

> <s_st_Chirality_1>
7_R_10_5_9_20

> <i_mmod_Serial_Number-OPLS-2005>
315

> <i_i_glide_lignum>
313

> <r_i_docking_score>
-1.95412

> <r_i_glide_gscore>
-1.95412

> <r_i_glide_lipo>
-0.676903

> <r_i_glide_hbond>
-0.995889

> <r_i_glide_metal>
0

> <r_i_glide_eburp>
-1.8392

> <r_i_glide_evdw>
-18.9824

> <r_i_glide_ecoul>
-16.1052

> <r_i_glide_erotb>
4.26609

> <r_i_glide_esite>
0.420902

> <r_i_glide_emodel>
-66.819

> <r_i_glide_energy>
-35.0877

> <r_i_glide_einternal>
3.80931

> <i_i_glide_confnum>
214

> <i_i_glide_posenum>
408

$$$$
C03069
                    3D
 Structure written by MMmdl.
 92 94  0  0  1  0            999 V2000
   -1.7147   12.4555    8.4626 N   0  0  0  0  0  0
   -1.8753   13.7598    7.7474 C   0  0  2  0  0  0
   -2.5587   11.9711    9.4366 C   0  0  0  0  0  0
   -0.7434   11.4858    8.3192 C   0  0  0  0  0  0
   -3.1868   13.8321    7.2573 O   0  0  0  0  0  0
   -0.9360   13.8119    6.5336 C   0  0  1  0  0  0
   -2.0041   10.7294    9.8488 C   0  0  0  0  0  0
   -3.6887   12.5493    9.9390 N   0  0  0  0  0  0
   -0.8634   10.4516    9.1091 N   0  0  0  0  0  0
   -3.1972   13.8273    5.8273 C   0  0  1  0  0  0
   -1.8308   14.4326    5.4787 C   0  0  1  0  0  0
    0.1964   14.6383    6.6998 O   0  0  0  0  0  0
   -2.6986   10.0598   10.8868 C   0  0  0  0  0  0
   -4.2327   11.8052   10.9058 C   0  0  0  0  0  0
   -3.4011   12.3826    5.3355 C   0  0  0  0  0  0
   -1.8387   15.8430    5.7012 O   0  0  0  0  0  0
   -3.8153   10.6321   11.3942 N   0  0  0  0  0  0
   -2.2995    8.8858   11.3930 N   0  0  0  0  0  0
   -4.6791   11.8903    5.6829 O   0  0  0  0  0  0
   -2.7487   16.8716    4.5456 P   0  0  0  0  0  0
   -4.9868   10.2174    5.7733 P   0  0  0  0  0  0
   -2.0581   16.5808    3.1952 O   0  0  0  0  0  0
   -3.8936    9.4877    4.6878 O   0  0  0  0  0  0
   -4.6604    9.7595    7.1437 O   0  0  0  0  0  0
   -2.2148    9.2122    4.5995 P   0  0  0  0  0  0
   -2.0744    7.9263    3.4880 O   0  0  0  0  0  0
   -1.5603   10.3994    4.0054 O   0  0  0  0  0  0
   -1.3329    8.0469    2.2863 C   0  0  0  0  0  0
   -1.6796    6.9291    1.2664 C   0  0  0  0  0  0
   -0.8491    7.1731   -0.0396 C   0  0  2  0  0  0
   -1.3734    5.5555    1.9045 C   0  0  0  0  0  0
   -3.1916    6.9889    0.9488 C   0  0  0  0  0  0
    0.5498    6.5281   -0.0625 C   0  0  0  0  0  0
   -0.7108    8.5592   -0.2984 O   0  0  0  0  0  0
    1.3847    6.8841    0.9251 N   0  0  0  0  0  0
    0.8559    5.7112   -0.9319 O   0  0  0  0  0  0
    2.6345    6.2021    1.2320 C   0  0  0  0  0  0
    2.3771    4.9839    2.1357 C   0  0  0  0  0  0
    3.6603    4.2439    2.5264 C   0  0  0  0  0  0
    3.8386    4.0168    3.8355 N   0  0  0  0  0  0
    4.4698    3.8920    1.6681 O   0  0  0  0  0  0
    5.0637    3.4844    4.4163 C   0  0  0  0  0  0
    5.3059    2.0456    3.9466 C   0  0  0  0  0  0
    4.5291    0.8455    5.0693 S   0  0  0  0  0  0
    3.0848    0.3898    4.0758 C   0  0  0  0  0  0
    2.0230   -0.3467    4.7913 C   0  0  0  0  0  0
    3.0504    0.6618    2.8763 O   0  0  0  0  0  0
    0.9112   -0.8961    4.2494 C   0  0  0  0  0  0
   -0.0564   -1.6795    5.1171 C   0  0  0  0  0  0
    0.4955   -0.8353    2.7855 C   0  0  0  0  0  0
   -1.6954   14.5309    8.4975 H   0  0  0  0  0  0
    0.0707   11.5709    7.6142 H   0  0  0  0  0  0
   -0.6389   12.8036    6.2462 H   0  0  0  0  0  0
   -4.0233   14.4320    5.4574 H   0  0  0  0  0  0
   -1.4955   14.2024    4.4667 H   0  0  0  0  0  0
    0.7332   14.2162    7.3576 H   0  0  0  0  0  0
   -5.1279   12.2081   11.3559 H   0  0  0  0  0  0
   -3.2947   12.3207    4.2574 H   0  0  0  0  0  0
   -2.6298   11.7417    5.7631 H   0  0  0  0  0  0
   -2.8266    8.4525   12.1364 H   0  0  0  0  0  0
   -1.4573    8.4536   11.0408 H   0  0  0  0  0  0
   -1.5050    9.0307    1.8476 H   0  0  0  0  0  0
   -0.2763    8.0154    2.5537 H   0  0  0  0  0  0
   -1.4139    6.7670   -0.8807 H   0  0  0  0  0  0
   -1.6572    4.7254    1.2587 H   0  0  0  0  0  0
   -0.3156    5.4442    2.1430 H   0  0  0  0  0  0
   -1.9289    5.4322    2.8328 H   0  0  0  0  0  0
   -3.5011    6.1981    0.2655 H   0  0  0  0  0  0
   -3.7927    6.8682    1.8504 H   0  0  0  0  0  0
   -3.4651    7.9427    0.4967 H   0  0  0  0  0  0
   -1.4918    9.0003   -0.0022 H   0  0  0  0  0  0
    1.1426    7.6852    1.4899 H   0  0  0  0  0  0
    3.1105    5.8893    0.3009 H   0  0  0  0  0  0
    3.3120    6.9038    1.7222 H   0  0  0  0  0  0
    1.8701    5.2974    3.0490 H   0  0  0  0  0  0
    1.7078    4.2884    1.6267 H   0  0  0  0  0  0
    3.0790    4.2260    4.4669 H   0  0  0  0  0  0
    5.9054    4.1174    4.1303 H   0  0  0  0  0  0
    4.9908    3.5157    5.5047 H   0  0  0  0  0  0
    4.9005    1.9083    2.9432 H   0  0  0  0  0  0
    6.3772    1.8457    3.8980 H   0  0  0  0  0  0
    2.1767   -0.4581    5.8548 H   0  0  0  0  0  0
   -0.1530   -2.7003    4.7464 H   0  0  0  0  0  0
    0.2762   -1.7279    6.1546 H   0  0  0  0  0  0
   -1.0423   -1.2143    5.1016 H   0  0  0  0  0  0
   -0.5907   -0.7841    2.7062 H   0  0  0  0  0  0
    0.8805    0.0387    2.2640 H   0  0  0  0  0  0
    0.8279   -1.7320    2.2623 H   0  0  0  0  0  0
   -4.1857   16.3288    4.7078 O   0  5  0  0  0  0
   -2.4970   18.2769    5.1353 O   0  5  0  0  0  0
   -6.3511    9.9846    5.2467 O   0  5  0  0  0  0
   -1.7694    8.7262    5.9261 O   0  5  0  0  0  0
  1  2  1  0  0  0
  1  3  1  0  0  0
  1  4  1  0  0  0
  2  5  1  0  0  0
  2  6  1  0  0  0
  2 51  1  0  0  0
  3  7  2  0  0  0
  3  8  1  0  0  0
  4  9  2  0  0  0
  4 52  1  0  0  0
  5 10  1  0  0  0
  6 11  1  0  0  0
  6 12  1  0  0  0
  6 53  1  0  0  0
  7 13  1  0  0  0
  7  9  1  0  0  0
  8 14  2  0  0  0
 10 15  1  0  0  0
 10 11  1  0  0  0
 10 54  1  0  0  0
 11 16  1  0  0  0
 11 55  1  0  0  0
 12 56  1  0  0  0
 13 17  2  0  0  0
 13 18  1  0  0  0
 14 17  1  0  0  0
 14 57  1  0  0  0
 15 19  1  0  0  0
 15 58  1  0  0  0
 15 59  1  0  0  0
 16 20  1  0  0  0
 18 60  1  0  0  0
 18 61  1  0  0  0
 19 21  1  0  0  0
 20 22  2  0  0  0
 20 89  1  0  0  0
 20 90  1  0  0  0
 21 23  1  0  0  0
 21 24  2  0  0  0
 21 91  1  0  0  0
 23 25  1  0  0  0
 25 26  1  0  0  0
 25 27  2  0  0  0
 25 92  1  0  0  0
 26 28  1  0  0  0
 28 29  1  0  0  0
 28 62  1  0  0  0
 28 63  1  0  0  0
 29 30  1  0  0  0
 29 31  1  0  0  0
 29 32  1  0  0  0
 30 33  1  0  0  0
 30 34  1  0  0  0
 30 64  1  0  0  0
 31 65  1  0  0  0
 31 66  1  0  0  0
 31 67  1  0  0  0
 32 68  1  0  0  0
 32 69  1  0  0  0
 32 70  1  0  0  0
 33 35  1  0  0  0
 33 36  2  0  0  0
 34 71  1  0  0  0
 35 37  1  0  0  0
 35 72  1  0  0  0
 37 38  1  0  0  0
 37 73  1  0  0  0
 37 74  1  0  0  0
 38 39  1  0  0  0
 38 75  1  0  0  0
 38 76  1  0  0  0
 39 40  1  0  0  0
 39 41  2  0  0  0
 40 42  1  0  0  0
 40 77  1  0  0  0
 42 43  1  0  0  0
 42 78  1  0  0  0
 42 79  1  0  0  0
 43 44  1  0  0  0
 43 80  1  0  0  0
 43 81  1  0  0  0
 44 45  1  0  0  0
 45 46  1  0  0  0
 45 47  2  0  0  0
 46 48  2  0  0  0
 46 82  1  0  0  0
 48 49  1  0  0  0
 48 50  1  0  0  0
 49 83  1  0  0  0
 49 84  1  0  0  0
 49 85  1  0  0  0
 50 86  1  0  0  0
 50 87  1  0  0  0
 50 88  1  0  0  0
M  CHG  4  89  -1  90  -1  91  -1  92  -1
M  END
> <i_ionizer_Ion_state_n>
30

> <i_ionizer_Tot_Q>
-4

> <s_ionizer_Ion_centers>
89_90_91_92

> <s_ionizer_Ion_types>
OM_OM_OM_OM

> <s_ionizer_Ion_ctrs_in>
22_23_26_30

> <r_ionizer_Ionization_penalty>
4.85714e-05

> <r_ionizer_Ionization_penalty_charging>
2.98356e-05

> <r_ionizer_Ionization_penalty_neutral>
1.87357e-05

> <s_st_Chirality_1>
2_R_5_1_6_51

> <s_st_Chirality_2>
6_R_12_2_11_53

> <s_st_Chirality_3>
10_R_5_11_15_54

> <s_st_Chirality_4>
11_R_16_6_10_55

> <s_st_Chirality_5>
30_R_34_33_29_64

> <i_mmod_Serial_Number-OPLS-2005>
521

> <i_i_glide_lignum>
515

> <r_i_docking_score>
-1.93904

> <r_i_glide_gscore>
-1.93904

> <r_i_glide_lipo>
-1.35672

> <r_i_glide_hbond>
-0.5

> <r_i_glide_metal>
0

> <r_i_glide_eburp>
0

> <r_i_glide_evdw>
-12.8583

> <r_i_glide_ecoul>
5.22875

> <r_i_glide_erotb>
0.528317

> <r_i_glide_esite>
-0.104843

> <r_i_glide_emodel>
0.136466

> <r_i_glide_energy>
-7.62959

> <r_i_glide_einternal>
22.5242

> <i_i_glide_confnum>
183

> <i_i_glide_posenum>
481

$$$$
C05381
                    3D
 Structure written by MMmdl.
 54 55  0  0  1  0            999 V2000
    2.4445    1.1891    1.2318 N   0  3  0  0  0  0
    1.7946    0.7798    2.3488 C   0  0  0  0  0  0
    2.6450    2.5730    1.1281 C   0  0  0  0  0  0
    2.9564    0.2506    0.2088 C   0  0  0  0  0  0
    1.4214    2.1447    3.3601 S   0  0  0  0  0  0
    1.4439   -0.6479    2.6874 C   0  0  1  0  0  0
    2.1882    3.2265    2.2468 C   0  0  0  0  0  0
    3.3273    3.3031    0.0017 C   0  0  0  0  0  0
    4.4811    0.2986    0.1361 C   0  0  0  0  0  0
    2.2839   -1.2733    3.8147 C   0  0  0  0  0  0
    0.1014   -0.4887    3.1023 O   0  0  0  0  0  0
    2.3715    4.6681    2.5952 C   0  0  0  0  0  0
    5.2908   -0.8439   -0.0755 C   0  0  0  0  0  0
    5.1746    1.5252    0.2455 C   0  0  0  0  0  0
    2.9308   -0.2124    4.7290 C   0  0  0  0  0  0
    1.2256    5.5156    2.0240 C   0  0  0  0  0  0
    6.6309   -0.7530   -0.1894 N   0  0  0  0  0  0
    4.7781   -2.0779   -0.1756 N   0  0  0  0  0  0
    6.5153    1.6064    0.1356 N   0  0  0  0  0  0
    4.0878    0.5368    4.0571 C   0  0  0  0  0  0
    1.3246    5.6931    0.6253 O   0  0  0  0  0  0
    7.1673    0.4667   -0.0993 C   0  0  0  0  0  0
    4.7504    1.3524    4.7363 O   0  5  0  0  0  0
    0.2086    6.6659   -0.2256 P   0  0  0  0  0  0
    8.6644    0.5721   -0.2969 C   0  0  0  0  0  0
   -1.2701    6.4397    0.5953 O   0  0  0  0  0  0
    0.6171    8.0823   -0.0832 O   0  0  0  0  0  0
   -2.0810    6.1323    2.1641 P   0  0  0  0  0  0
   -2.0098    4.5927    2.2816 O   0  0  0  0  0  0
    2.6369   -0.7698    0.4051 H   0  0  0  0  0  0
    2.4928    0.5214   -0.7390 H   0  0  0  0  0  0
    1.5226   -1.2495    1.7820 H   0  0  0  0  0  0
    3.4283    2.6973   -0.8959 H   0  0  0  0  0  0
    2.7730    4.1944   -0.2914 H   0  0  0  0  0  0
    4.3272    3.6217    0.2925 H   0  0  0  0  0  0
    1.6379   -1.9115    4.4201 H   0  0  0  0  0  0
    3.0554   -1.9196    3.3924 H   0  0  0  0  0  0
    0.0942    0.0189    3.9001 H   0  0  0  0  0  0
    2.4342    4.7826    3.6752 H   0  0  0  0  0  0
    3.3234    5.0343    2.2104 H   0  0  0  0  0  0
    4.6498    2.4543    0.4116 H   0  0  0  0  0  0
    2.1874    0.5224    5.0390 H   0  0  0  0  0  0
    3.3086   -0.6831    5.6372 H   0  0  0  0  0  0
    0.2570    5.0849    2.2774 H   0  0  0  0  0  0
    1.2539    6.5024    2.4834 H   0  0  0  0  0  0
    5.3740   -2.8626   -0.3946 H   0  0  0  0  0  0
    3.7833   -2.2434   -0.1645 H   0  0  0  0  0  0
    8.8808    0.8898   -1.3175 H   0  0  0  0  0  0
    9.0950    1.3020    0.3892 H   0  0  0  0  0  0
    9.1546   -0.3866   -0.1246 H   0  0  0  0  0  0
    4.2910    0.2703    2.8530 O   0  0  0  0  0  0
    0.0681    6.0925   -1.5837 O   0  5  0  0  0  0
   -1.2020    6.9208    3.1611 O   0  5  0  0  0  0
   -3.4911    6.7140    1.9149 O   0  5  0  0  0  0
  1  2  2  0  0  0
  1  3  1  0  0  0
  1  4  1  0  0  0
  2  5  1  0  0  0
  2  6  1  0  0  0
  3  7  2  0  0  0
  3  8  1  0  0  0
  4  9  1  0  0  0
  4 30  1  0  0  0
  4 31  1  0  0  0
  5  7  1  0  0  0
  6 10  1  0  0  0
  6 11  1  0  0  0
  6 32  1  0  0  0
  7 12  1  0  0  0
  8 33  1  0  0  0
  8 34  1  0  0  0
  8 35  1  0  0  0
  9 13  2  0  0  0
  9 14  1  0  0  0
 10 15  1  0  0  0
 10 36  1  0  0  0
 10 37  1  0  0  0
 11 38  1  0  0  0
 12 16  1  0  0  0
 12 39  1  0  0  0
 12 40  1  0  0  0
 13 17  1  0  0  0
 13 18  1  0  0  0
 14 19  2  0  0  0
 14 41  1  0  0  0
 15 20  1  0  0  0
 15 42  1  0  0  0
 15 43  1  0  0  0
 16 21  1  0  0  0
 16 44  1  0  0  0
 16 45  1  0  0  0
 17 22  2  0  0  0
 18 46  1  0  0  0
 18 47  1  0  0  0
 19 22  1  0  0  0
 20 23  1  0  0  0
 20 51  2  0  0  0
 21 24  1  0  0  0
 22 25  1  0  0  0
 24 26  1  0  0  0
 24 27  2  0  0  0
 24 52  1  0  0  0
 25 48  1  0  0  0
 25 49  1  0  0  0
 25 50  1  0  0  0
 26 28  1  0  0  0
 28 29  2  0  0  0
 28 53  1  0  0  0
 28 54  1  0  0  0
M  CHG  5   1   1  23  -1  52  -1  53  -1  54  -1
M  END
> <i_ionizer_Ion_state_n>
15

> <i_ionizer_Tot_Q>
-4

> <s_ionizer_Ion_centers>
51_52_53_54

> <s_ionizer_Ion_types>
OM_OM_OM_OM

> <s_ionizer_Ion_ctrs_in>
23_28_31_32

> <r_ionizer_Ionization_penalty>
0.000614566

> <r_ionizer_Ionization_penalty_charging>
0.000614566

> <r_ionizer_Ionization_penalty_neutral>
0

> <s_st_Chirality_1>
6_R_11_2_10_32

> <s_st_EZ_1>
3_1_2_5_Z

> <i_mmod_Serial_Number-OPLS-2005>
679

> <i_i_glide_lignum>
672

> <r_i_docking_score>
-1.83569

> <r_i_glide_gscore>
-1.83569

> <r_i_glide_lipo>
-1.34727

> <r_i_glide_hbond>
-0.632333

> <r_i_glide_metal>
0

> <r_i_glide_eburp>
-2.25514e-17

> <r_i_glide_evdw>
0.697887

> <r_i_glide_ecoul>
2.46556

> <r_i_glide_erotb>
0.858205

> <r_i_glide_esite>
-1.01668

> <r_i_glide_emodel>
-0.969981

> <r_i_glide_energy>
3.16345

> <r_i_glide_einternal>
11.4873

> <i_i_glide_confnum>
226

> <i_i_glide_posenum>
549

$$$$
C00449
                    3D
 Structure written by MMmdl.
 38 37  0  0  1  0            999 V2000
    1.1625    3.3234    2.2665 C   0  0  1  0  0  0
    0.9585    1.7924    2.2620 C   0  0  0  0  0  0
    0.7758    3.9111    3.6366 C   0  0  0  0  0  0
    1.7246    1.0883    3.3988 C   0  0  0  0  0  0
    2.7300    4.5272    0.8238 C   0  0  0  0  0  0
   -0.0967    3.3053    4.2997 O   0  0  0  0  0  0
    1.2985   -0.3694    3.5606 C   0  0  0  0  0  0
    2.1562    5.8984    1.2094 C   0  0  0  0  0  0
    1.3774   -1.1049    2.5530 O   0  0  0  0  0  0
    0.6420    5.9876    0.9701 C   0  0  0  0  0  0
    0.0796    7.3905    1.2656 C   0  0  0  0  0  0
   -1.4449    7.5201    1.0458 C   0  0  1  0  0  0
   -2.2568    6.5416    1.9054 C   0  0  0  0  0  0
   -1.6999    5.4739    2.2462 O   0  0  0  0  0  0
    0.5219    3.7616    1.4980 H   0  0  0  0  0  0
   -0.1072    1.5588    2.3128 H   0  0  0  0  0  0
    1.3045    1.3728    1.3152 H   0  0  0  0  0  0
    2.7995    1.1450    3.2217 H   0  0  0  0  0  0
    1.5418    1.5876    4.3505 H   0  0  0  0  0  0
    3.7906    4.6214    0.5861 H   0  0  0  0  0  0
    2.2263    4.1588   -0.0708 H   0  0  0  0  0  0
    2.3647    6.1002    2.2613 H   0  0  0  0  0  0
    2.6563    6.6800    0.6354 H   0  0  0  0  0  0
    0.4219    5.7199   -0.0642 H   0  0  0  0  0  0
    0.1393    5.2466    1.5929 H   0  0  0  0  0  0
    0.3349    7.6759    2.2875 H   0  0  0  0  0  0
    0.5883    8.1079    0.6201 H   0  0  0  0  0  0
   -1.6577    7.3273   -0.0073 H   0  0  0  0  0  0
   -2.8800    8.9665    1.1145 H   0  0  0  0  0  0
   -1.7339    9.1059    2.2887 H   0  0  0  0  0  0
    2.5591    3.6000    1.9374 N   0  3  0  0  0  0
    3.0048    3.9684    2.7660 H   0  0  0  0  0  0
    3.0181    2.7261    1.7270 H   0  0  0  0  0  0
    1.3730    4.9461    4.0037 O   0  5  0  0  0  0
    0.9073   -0.7207    4.6952 O   0  5  0  0  0  0
   -1.8923    8.8973    1.3131 N   0  3  0  0  0  0
   -1.3788    9.5449    0.7336 H   0  0  0  0  0  0
   -3.4171    6.8844    2.2195 O   0  5  0  0  0  0
  1  2  1  0  0  0
  1  3  1  0  0  0
  1 15  1  0  0  0
  1 31  1  0  0  0
  2  4  1  0  0  0
  2 16  1  0  0  0
  2 17  1  0  0  0
  3  6  2  0  0  0
  3 34  1  0  0  0
  4  7  1  0  0  0
  4 18  1  0  0  0
  4 19  1  0  0  0
  5  8  1  0  0  0
  5 20  1  0  0  0
  5 21  1  0  0  0
  5 31  1  0  0  0
  7  9  2  0  0  0
  7 35  1  0  0  0
  8 10  1  0  0  0
  8 22  1  0  0  0
  8 23  1  0  0  0
 10 11  1  0  0  0
 10 24  1  0  0  0
 10 25  1  0  0  0
 11 12  1  0  0  0
 11 26  1  0  0  0
 11 27  1  0  0  0
 12 13  1  0  0  0
 12 28  1  0  0  0
 12 36  1  0  0  0
 13 14  2  0  0  0
 13 38  1  0  0  0
 29 36  1  0  0  0
 30 36  1  0  0  0
 31 32  1  0  0  0
 31 33  1  0  0  0
 36 37  1  0  0  0
M  CHG  5  31   1  34  -1  35  -1  36   1  38  -1
M  END
> <i_ionizer_Ion_state_n>
31

> <i_ionizer_Tot_Q>
-1

> <s_ionizer_Ion_centers>
31_34_35_36_38

> <s_ionizer_Ion_types>
N5_OM_OM_N5_OM

> <s_ionizer_Ion_ctrs_in>
3_7_11_17_18

> <r_ionizer_Ionization_penalty>
0.00202315

> <r_ionizer_Ionization_penalty_charging>
0.00202315

> <r_ionizer_Ionization_penalty_neutral>
0

> <s_st_Chirality_1>
1_S_31_3_2_15

> <s_st_Chirality_2>
12_S_36_13_11_28

> <i_mmod_Serial_Number-OPLS-2005>
243

> <i_i_glide_lignum>
241

> <r_i_docking_score>
-1.80014

> <r_i_glide_gscore>
-1.80014

> <r_i_glide_lipo>
-0.630259

> <r_i_glide_hbond>
-1.64095

> <r_i_glide_metal>
0

> <r_i_glide_eburp>
-1.70239

> <r_i_glide_evdw>
-15.4831

> <r_i_glide_ecoul>
-14.2319

> <r_i_glide_erotb>
4.33648

> <r_i_glide_esite>
0.498824

> <r_i_glide_emodel>
-92.1265

> <r_i_glide_energy>
-29.715

> <r_i_glide_einternal>
9.59243

> <i_i_glide_confnum>
148

> <i_i_glide_posenum>
610

$$$$
C00081
                    3D
 Structure written by MMmdl.
 42 44  0  0  1  0            999 V2000
   -2.0126    9.8799    5.0883 N   0  0  0  0  0  0
   -1.5734   10.5049    6.2510 C   0  0  0  0  0  0
   -2.4089    8.4454    4.9286 C   0  0  2  0  0  0
   -2.0118   10.8529    4.1533 C   0  0  0  0  0  0
   -1.3326   11.8107    5.9181 C   0  0  0  0  0  0
   -1.4276    9.8950    7.4807 N   0  0  0  0  0  0
   -1.2487    7.7053    4.6742 O   0  0  0  0  0  0
   -3.3275    8.3056    3.7100 C   0  0  1  0  0  0
   -1.6058   12.0489    4.5772 N   0  0  0  0  0  0
   -0.8487   12.7199    6.9842 C   0  0  0  0  0  0
   -1.0035   10.7265    8.3971 C   0  0  0  0  0  0
   -1.3033    7.1090    3.3784 C   0  0  1  0  0  0
   -2.3360    7.9411    2.6193 C   0  0  1  0  0  0
   -4.2994    7.2983    3.9150 O   0  0  0  0  0  0
   -0.7160   12.0976    8.1806 N   0  0  0  0  0  0
   -0.5938   13.9092    6.8064 O   0  0  0  0  0  0
    0.0943    7.0885    2.7489 C   0  0  0  0  0  0
   -2.9452    7.2656    1.5359 O   0  0  0  0  0  0
    0.1920    5.9881    1.8672 O   0  0  0  0  0  0
    1.5806    5.0068    1.8125 P   0  0  0  0  0  0
    1.0102    3.4063    1.9056 O   0  0  0  0  0  0
    2.2299    5.1983    0.4949 O   0  0  0  0  0  0
    0.7647    2.2473    3.1281 P   0  0  0  0  0  0
    2.3198    1.7739    3.6285 O   0  0  0  0  0  0
    0.1020    2.9079    4.2777 O   0  0  0  0  0  0
    3.3731    0.4011    4.0638 P   0  0  0  0  0  0
    3.5754   -0.3155    2.7101 O   0  0  0  0  0  0
   -2.8686    8.1734    5.8794 H   0  0  0  0  0  0
   -2.3163   10.6814    3.1311 H   0  0  0  0  0  0
   -3.8452    9.2416    3.4935 H   0  0  0  0  0  0
   -0.8343   10.4143    9.4286 H   0  0  0  0  0  0
   -1.6690    6.0896    3.5127 H   0  0  0  0  0  0
   -1.8705    8.8539    2.2524 H   0  0  0  0  0  0
   -4.8181    7.2483    3.1250 H   0  0  0  0  0  0
   -0.3918   12.6529    8.9583 H   0  0  0  0  0  0
    0.3064    8.0202    2.2270 H   0  0  0  0  0  0
    0.8441    6.9815    3.5330 H   0  0  0  0  0  0
   -3.4479    7.9107    1.0452 H   0  0  0  0  0  0
    2.3649    5.2768    3.0394 O   0  5  0  0  0  0
    0.1040    1.0758    2.5054 O   0  5  0  0  0  0
    4.6159    1.1098    4.6485 O   0  5  0  0  0  0
    2.4976   -0.3537    5.0904 O   0  5  0  0  0  0
  1  2  1  0  0  0
  1  3  1  0  0  0
  1  4  1  0  0  0
  2  5  2  0  0  0
  2  6  1  0  0  0
  3  7  1  0  0  0
  3  8  1  0  0  0
  3 28  1  0  0  0
  4  9  2  0  0  0
  4 29  1  0  0  0
  5 10  1  0  0  0
  5  9  1  0  0  0
  6 11  2  0  0  0
  7 12  1  0  0  0
  8 13  1  0  0  0
  8 14  1  0  0  0
  8 30  1  0  0  0
 10 15  1  0  0  0
 10 16  2  0  0  0
 11 15  1  0  0  0
 11 31  1  0  0  0
 12 17  1  0  0  0
 12 13  1  0  0  0
 12 32  1  0  0  0
 13 18  1  0  0  0
 13 33  1  0  0  0
 14 34  1  0  0  0
 15 35  1  0  0  0
 17 19  1  0  0  0
 17 36  1  0  0  0
 17 37  1  0  0  0
 18 38  1  0  0  0
 19 20  1  0  0  0
 20 21  1  0  0  0
 20 22  2  0  0  0
 20 39  1  0  0  0
 21 23  1  0  0  0
 23 24  1  0  0  0
 23 25  2  0  0  0
 23 40  1  0  0  0
 24 26  1  0  0  0
 26 27  2  0  0  0
 26 41  1  0  0  0
 26 42  1  0  0  0
M  CHG  4  39  -1  40  -1  41  -1  42  -1
M  END
> <i_ionizer_Ion_state_n>
30

> <i_ionizer_Tot_Q>
-4

> <s_ionizer_Ion_centers>
39_40_41_42

> <s_ionizer_Ion_types>
OM_OM_OM_OM

> <s_ionizer_Ion_ctrs_in>
22_26_29_30

> <r_ionizer_Ionization_penalty>
4.85714e-05

> <r_ionizer_Ionization_penalty_charging>
2.98356e-05

> <r_ionizer_Ionization_penalty_neutral>
1.87357e-05

> <s_st_Chirality_1>
3_R_7_1_8_28

> <s_st_Chirality_2>
8_R_14_3_13_30

> <s_st_Chirality_3>
12_R_7_13_17_32

> <s_st_Chirality_4>
13_R_18_8_12_33

> <i_mmod_Serial_Number-OPLS-2005>
56

> <i_i_glide_lignum>
55

> <r_i_docking_score>
-1.75383

> <r_i_glide_gscore>
-1.75383

> <r_i_glide_lipo>
-0.366638

> <r_i_glide_hbond>
-1.0169

> <r_i_glide_metal>
0

> <r_i_glide_eburp>
-5.55112e-17

> <r_i_glide_evdw>
-16.3124

> <r_i_glide_ecoul>
-7.42628

> <r_i_glide_erotb>
0.64353

> <r_i_glide_esite>
1.0338

> <r_i_glide_emodel>
-57.2996

> <r_i_glide_energy>
-23.7387

> <r_i_glide_einternal>
8.65202

> <i_i_glide_confnum>
64

> <i_i_glide_posenum>
799

$$$$
C05791
                    3D
 Structure written by MMmdl.
 83 86  0  0  1  0            999 V2000
   -1.9517    9.6980    4.3733 C   0  0  0  0  0  0
   -1.5570   10.1677    5.5990 C   0  0  0  0  0  0
   -2.3828    8.3375    3.9036 C   0  0  0  0  0  0
   -1.8709   10.7617    3.5058 N   0  0  0  0  0  0
   -1.2042   11.5506    5.4491 C   0  0  0  0  0  0
   -1.4759    9.3624    6.8724 C   0  0  0  0  0  0
   -1.2406    7.5137    3.3838 C   0  0  0  0  0  0
   -1.3687   11.8803    4.1275 C   0  0  0  0  0  0
   -0.7054   12.4510    6.5509 C   0  0  0  0  0  0
   -2.6243    9.7118    7.8385 C   0  0  0  0  0  0
   -0.5200    7.5540    2.2179 C   0  0  0  0  0  0
   -0.7037    6.5000    4.1407 N   0  0  0  0  0  0
   -1.0907   13.1176    3.3302 C   0  0  0  0  0  0
   -4.0013    9.7119    7.1644 C   0  0  0  0  0  0
    0.4988    6.5464    2.2981 C   0  0  0  0  0  0
   -0.7484    8.4991    1.0629 C   0  0  0  0  0  0
    0.3895    5.9399    3.5233 C   0  0  0  0  0  0
   -1.5790   14.3963    4.0461 C   0  0  2  0  0  0
   -4.8371   10.5798    7.5024 O   0  0  0  0  0  0
    1.5243    6.2409    1.2360 C   0  0  0  0  0  0
   -2.0661    8.1986    0.3240 C   0  0  0  0  0  0
    1.2044    4.8945    4.2229 C   0  0  0  0  0  0
   -1.4745   15.6657    3.2352 C   0  0  0  0  0  0
   -0.7170   14.7532    5.1624 N   0  0  0  0  0  0
   -2.8577    7.0443    0.9508 C   0  0  0  0  0  0
    2.3343    4.3338    3.3341 C   0  0  2  0  0  0
   -0.7158   16.5754    3.8628 C   0  0  0  0  0  0
   -2.1847   15.8023    1.8961 C   0  0  0  0  0  0
   -0.2297   15.9997    5.0988 C   0  0  0  0  0  0
   -3.9024    7.3069    1.5878 O   0  0  0  0  0  0
    2.5919    2.8566    3.4898 C   0  0  0  0  0  0
    3.6389    4.8437    3.7185 N   0  0  0  0  0  0
   -0.3546   17.9846    3.4302 C   0  0  0  0  0  0
   -1.3470   15.2950    0.7169 C   0  0  0  0  0  0
    0.4908   16.5198    5.9476 O   0  0  0  0  0  0
    3.8643    2.6123    3.8340 C   0  0  0  0  0  0
    1.4765    1.8517    3.2572 C   0  0  0  0  0  0
    4.5443    3.8913    3.9848 C   0  0  0  0  0  0
    4.4583    1.2990    4.0742 C   0  0  0  0  0  0
    5.7094    4.1203    4.3017 O   0  0  0  0  0  0
    3.9751    0.1117    3.6680 C   0  0  0  0  0  0
   -2.8621    7.8007    4.7225 H   0  0  0  0  0  0
   -3.1451    8.4503    3.1331 H   0  0  0  0  0  0
   -2.0916   10.7014    2.5218 H   0  0  0  0  0  0
   -1.4984    8.3018    6.6200 H   0  0  0  0  0  0
   -0.5100    9.5471    7.3444 H   0  0  0  0  0  0
   -1.4095   12.4535    7.3829 H   0  0  0  0  0  0
    0.2578   12.0958    6.9174 H   0  0  0  0  0  0
   -0.5851   13.4780    6.2090 H   0  0  0  0  0  0
   -2.6448    9.0010    8.6652 H   0  0  0  0  0  0
   -2.4563   10.6975    8.2737 H   0  0  0  0  0  0
   -1.0342    6.2498    5.0620 H   0  0  0  0  0  0
   -0.0122   13.1778    3.1780 H   0  0  0  0  0  0
   -1.5208   13.0486    2.3312 H   0  0  0  0  0  0
   -0.7472    9.5219    1.4414 H   0  0  0  0  0  0
    0.0969    8.4269    0.3774 H   0  0  0  0  0  0
   -2.5897   14.2755    4.4281 H   0  0  0  0  0  0
    2.3431    6.9584    1.2851 H   0  0  0  0  0  0
    1.9334    5.2385    1.3579 H   0  0  0  0  0  0
    1.0741    6.3002    0.2450 H   0  0  0  0  0  0
   -2.6994    9.0864    0.3201 H   0  0  0  0  0  0
   -1.8615    7.9509   -0.7181 H   0  0  0  0  0  0
    1.6391    5.3478    5.1145 H   0  0  0  0  0  0
    0.5703    4.0832    4.5807 H   0  0  0  0  0  0
   -0.5340   14.1218    5.9286 H   0  0  0  0  0  0
    2.1754    4.5848    2.2876 H   0  0  0  0  0  0
   -3.1346   15.2716    1.9120 H   0  0  0  0  0  0
   -2.4361   16.8504    1.7439 H   0  0  0  0  0  0
    3.8447    5.8316    3.7514 H   0  0  0  0  0  0
   -0.5522   18.6861    4.2414 H   0  0  0  0  0  0
    0.7057   18.0406    3.1830 H   0  0  0  0  0  0
   -0.9252   18.3146    2.5642 H   0  0  0  0  0  0
   -1.8973   15.3975   -0.2185 H   0  0  0  0  0  0
   -0.4202   15.8588    0.6115 H   0  0  0  0  0  0
   -1.0946   14.2417    0.8395 H   0  0  0  0  0  0
    1.8514    0.8366    3.1379 H   0  0  0  0  0  0
    0.7848    1.8616    4.0987 H   0  0  0  0  0  0
    0.9153    2.1054    2.3585 H   0  0  0  0  0  0
    5.3827    1.2609    4.6296 H   0  0  0  0  0  0
    4.5069   -0.7984    3.9031 H   0  0  0  0  0  0
    3.0594    0.0101    3.1073 H   0  0  0  0  0  0
   -4.1949    8.8241    6.3057 O   0  5  0  0  0  0
   -2.3918    5.8972    0.7776 O   0  5  0  0  0  0
  1  2  2  0  0  0
  1  3  1  0  0  0
  1  4  1  0  0  0
  2  5  1  0  0  0
  2  6  1  0  0  0
  3  7  1  0  0  0
  3 42  1  0  0  0
  3 43  1  0  0  0
  4  8  1  0  0  0
  4 44  1  0  0  0
  5  9  1  0  0  0
  5  8  2  0  0  0
  6 10  1  0  0  0
  6 45  1  0  0  0
  6 46  1  0  0  0
  7 11  2  0  0  0
  7 12  1  0  0  0
  8 13  1  0  0  0
  9 47  1  0  0  0
  9 48  1  0  0  0
  9 49  1  0  0  0
 10 14  1  0  0  0
 10 50  1  0  0  0
 10 51  1  0  0  0
 11 15  1  0  0  0
 11 16  1  0  0  0
 12 17  1  0  0  0
 12 52  1  0  0  0
 13 18  1  0  0  0
 13 53  1  0  0  0
 13 54  1  0  0  0
 14 19  2  0  0  0
 14 82  1  0  0  0
 15 20  1  0  0  0
 15 17  2  0  0  0
 16 21  1  0  0  0
 16 55  1  0  0  0
 16 56  1  0  0  0
 17 22  1  0  0  0
 18 23  1  0  0  0
 18 24  1  0  0  0
 18 57  1  0  0  0
 20 58  1  0  0  0
 20 59  1  0  0  0
 20 60  1  0  0  0
 21 25  1  0  0  0
 21 61  1  0  0  0
 21 62  1  0  0  0
 22 26  1  0  0  0
 22 63  1  0  0  0
 22 64  1  0  0  0
 23 27  2  0  0  0
 23 28  1  0  0  0
 24 29  1  0  0  0
 24 65  1  0  0  0
 25 30  2  0  0  0
 25 83  1  0  0  0
 26 31  1  0  0  0
 26 32  1  0  0  0
 26 66  1  0  0  0
 27 33  1  0  0  0
 27 29  1  0  0  0
 28 34  1  0  0  0
 28 67  1  0  0  0
 28 68  1  0  0  0
 29 35  2  0  0  0
 31 36  2  0  0  0
 31 37  1  0  0  0
 32 38  1  0  0  0
 32 69  1  0  0  0
 33 70  1  0  0  0
 33 71  1  0  0  0
 33 72  1  0  0  0
 34 73  1  0  0  0
 34 74  1  0  0  0
 34 75  1  0  0  0
 36 39  1  0  0  0
 36 38  1  0  0  0
 37 76  1  0  0  0
 37 77  1  0  0  0
 37 78  1  0  0  0
 38 40  2  0  0  0
 39 41  2  0  0  0
 39 79  1  0  0  0
 41 80  1  0  0  0
 41 81  1  0  0  0
M  CHG  2  82  -1  83  -1
M  END
> <i_ionizer_Ion_state_n>
3

> <i_ionizer_Tot_Q>
-2

> <s_ionizer_Ion_centers>
82_83

> <s_ionizer_Ion_types>
OM_OM

> <s_ionizer_Ion_ctrs_in>
19_31

> <r_ionizer_Ionization_penalty>
0.00118438

> <r_ionizer_Ionization_penalty_charging>
0.00118438

> <r_ionizer_Ionization_penalty_neutral>
0

> <s_st_Chirality_1>
18_R_24_23_13_57

> <s_st_Chirality_2>
26_R_32_31_22_66

> <s_st_EZ_1>
18_23_27_29_Z

> <s_st_EZ_2>
26_31_36_38_Z

> <i_mmod_Serial_Number-OPLS-2005>
790

> <i_i_glide_lignum>
781

> <r_i_docking_score>
-1.71007

> <r_i_glide_gscore>
-1.71007

> <r_i_glide_lipo>
-1.70983

> <r_i_glide_hbond>
-0.679485

> <r_i_glide_metal>
0

> <r_i_glide_eburp>
2.16298e-17

> <r_i_glide_evdw>
-4.4883

> <r_i_glide_ecoul>
-5.97794

> <r_i_glide_erotb>
0.637125

> <r_i_glide_esite>
0.998977

> <r_i_glide_emodel>
-5.07896

> <r_i_glide_energy>
-10.4662

> <r_i_glide_einternal>
18.1154

> <i_i_glide_confnum>
228

> <i_i_glide_posenum>
878

$$$$
C01272
                    3D
 Structure written by MMmdl.
 36 36  0  0  1  0            999 V2000
    0.8922    6.5535   -0.3924 P   0  0  0  0  0  0
    1.8374    5.0591   -0.0652 O   0  0  0  0  0  0
   -0.4815    6.2193    0.2301 O   0  0  0  0  0  0
    1.9394    4.5712    1.2736 C   0  0  0  0  0  0
    0.5434    4.6545    1.9789 C   0  0  1  0  0  0
    2.4343    3.1157    1.0904 C   0  0  2  0  0  0
    0.2992    3.5821    3.0922 C   0  0  2  0  0  0
    0.4859    5.9577    2.5648 O   0  0  0  0  0  0
    2.3900    2.2814    2.3881 C   0  0  2  0  0  0
    3.6215    2.9587    0.3024 O   0  0  0  0  0  0
    0.9194    2.1905    2.8318 C   0  0  0  0  0  0
   -1.0837    3.3012    3.1835 O   0  0  0  0  0  0
   -1.1068    6.7887    2.7156 P   0  0  0  0  0  0
    3.0934    2.8913    3.4526 O   0  0  0  0  0  0
    4.8277    1.6662    0.6506 P   0  0  0  0  0  0
    0.7777    1.4190    4.0238 O   0  0  0  0  0  0
   -2.1322    5.7155    2.2821 O   0  0  0  0  0  0
    4.1223    0.4241    0.0584 O   0  0  0  0  0  0
    1.4082   -0.2618    4.0295 P   0  0  0  0  0  0
    2.8939   -0.0888    4.4181 O   0  0  0  0  0  0
    2.6789    5.1328    1.8421 H   0  0  0  0  0  0
   -0.2213    4.5536    1.2075 H   0  0  0  0  0  0
    1.6988    2.6513    0.4322 H   0  0  0  0  0  0
    0.6621    3.9624    4.0478 H   0  0  0  0  0  0
    2.8043    1.2920    2.1975 H   0  0  0  0  0  0
    0.3538    1.7017    2.0364 H   0  0  0  0  0  0
   -1.3412    2.9193    2.3583 H   0  0  0  0  0  0
    2.7931    3.7866    3.5040 H   0  0  0  0  0  0
    1.7060    7.6797    0.2840 O   0  5  0  0  0  0
    0.8990    6.5867   -1.9387 O   0  5  0  0  0  0
   -1.1366    7.1907    4.2090 O   0  5  0  0  0  0
   -0.9476    7.9778    1.7407 O   0  5  0  0  0  0
    6.0999    2.1132   -0.1007 O   0  5  0  0  0  0
    4.9000    1.6810    2.1945 O   0  5  0  0  0  0
    0.4990   -0.9312    5.0831 O   0  5  0  0  0  0
    1.1520   -0.6878    2.5664 O   0  5  0  0  0  0
  1  2  1  0  0  0
  1  3  2  0  0  0
  1 29  1  0  0  0
  1 30  1  0  0  0
  2  4  1  0  0  0
  4  5  1  0  0  0
  4  6  1  0  0  0
  4 21  1  0  0  0
  5  7  1  0  0  0
  5  8  1  0  0  0
  5 22  1  0  0  0
  6  9  1  0  0  0
  6 10  1  0  0  0
  6 23  1  0  0  0
  7 11  1  0  0  0
  7 12  1  0  0  0
  7 24  1  0  0  0
  8 13  1  0  0  0
  9 14  1  0  0  0
  9 11  1  0  0  0
  9 25  1  0  0  0
 10 15  1  0  0  0
 11 16  1  0  0  0
 11 26  1  0  0  0
 12 27  1  0  0  0
 13 17  2  0  0  0
 13 31  1  0  0  0
 13 32  1  0  0  0
 14 28  1  0  0  0
 15 18  2  0  0  0
 15 33  1  0  0  0
 15 34  1  0  0  0
 16 19  1  0  0  0
 19 20  2  0  0  0
 19 35  1  0  0  0
 19 36  1  0  0  0
M  CHG  8  29  -1  30  -1  31  -1  32  -1  33  -1  34  -1  35  -1  36  -1
M  END
> <i_ionizer_Ion_state_n>
255

> <i_ionizer_Tot_Q>
-8

> <s_ionizer_Ion_centers>
29_30_31_32_33_34_35_36

> <s_ionizer_Ion_types>
OM_OM_OM_OM_OM_OM_OM_OM

> <s_ionizer_Ion_ctrs_in>
3_4_19_20_22_23_26_27

> <r_ionizer_Ionization_penalty>
5.96713e-05

> <r_ionizer_Ionization_penalty_charging>
5.96713e-05

> <r_ionizer_Ionization_penalty_neutral>
0

> <s_st_Chirality_1>
5_R_8_4_7_22

> <s_st_Chirality_2>
6_S_10_4_9_23

> <s_st_Chirality_3>
7_S_12_5_11_24

> <s_st_Chirality_4>
9_S_14_6_11_25

> <i_mmod_Serial_Number-OPLS-2005>
437

> <i_i_glide_lignum>
433

> <r_i_docking_score>
-1.5381

> <r_i_glide_gscore>
-1.5381

> <r_i_glide_lipo>
-0.494674

> <r_i_glide_hbond>
-0.879166

> <r_i_glide_metal>
0

> <r_i_glide_eburp>
-0.060492

> <r_i_glide_evdw>
-8.11207

> <r_i_glide_ecoul>
6.41404

> <r_i_glide_erotb>
0.384509

> <r_i_glide_esite>
-0.480712

> <r_i_glide_emodel>
-3.40301

> <r_i_glide_energy>
-1.69803

> <r_i_glide_einternal>
21.3761

> <i_i_glide_confnum>
18

> <i_i_glide_posenum>
167

$$$$
C01353
                    3D
 Structure written by MMmdl.
  5  4  0  0  1  0            999 V2000
    1.6854   -0.4540    3.6502 C   0  0  0  0  0  0
    2.5377   -0.3002    4.6998 O   0  0  0  0  0  0
    0.9036    0.4496    3.3671 O   0  5  0  0  0  0
    1.7000   -1.4908    2.9920 O   0  0  0  0  0  0
    3.0811   -1.0639    4.8091 H   0  0  0  0  0  0
  1  2  1  0  0  0
  1  3  1  0  0  0
  1  4  2  0  0  0
  2  5  1  0  0  0
M  CHG  1   3  -1
M  END
> <i_ionizer_Ion_state_n>
0

> <i_ionizer_Tot_Q>
0

> <s_ionizer_Ion_centers>


> <s_ionizer_Ion_types>


> <s_ionizer_Ion_ctrs_in>


> <r_ionizer_Ionization_penalty>
0

> <r_ionizer_Ionization_penalty_charging>
0

> <r_ionizer_Ionization_penalty_neutral>
0

> <i_mmod_Serial_Number-OPLS-2005>
443

> <i_i_glide_lignum>
439

> <r_i_docking_score>
-1.5265

> <r_i_glide_gscore>
-1.5265

> <r_i_glide_lipo>
0

> <r_i_glide_hbond>
-0.574509

> <r_i_glide_metal>
0

> <r_i_glide_eburp>
-2.5

> <r_i_glide_evdw>
-6.66233

> <r_i_glide_ecoul>
-4.90552

> <r_i_glide_erotb>
2.84992

> <r_i_glide_esite>
-0.27837

> <r_i_glide_emodel>
-20.5502

> <r_i_glide_energy>
-11.5678

> <r_i_glide_einternal>
3.72634e-05

> <i_i_glide_confnum>
1

> <i_i_glide_posenum>
305

$$$$
C00831
                    3D
 Structure written by MMmdl.
 40 39  0  0  1  0            999 V2000
    3.2344    2.8377    1.8601 C   0  0  0  0  0  0
    3.6288    1.5482    1.1144 C   0  0  1  0  0  0
    3.3558    3.9843    1.1747 N   0  0  0  0  0  0
    2.8052    2.7934    3.0135 O   0  0  0  0  0  0
    3.4613    0.2194    1.9308 C   0  0  0  0  0  0
    2.8993    1.4890   -0.0989 O   0  0  0  0  0  0
    3.0326    5.2998    1.7104 C   0  0  0  0  0  0
    1.9666    0.0797    2.3337 C   0  0  0  0  0  0
    3.8507   -0.9891    1.0435 C   0  0  0  0  0  0
    4.3441    0.2076    3.2033 C   0  0  0  0  0  0
    1.5163    5.4357    1.9335 C   0  0  0  0  0  0
    1.7000   -1.1010    3.0666 O   0  0  0  0  0  0
    0.8615    6.4659    1.0076 C   0  0  0  0  0  0
   -0.0435    7.2785    1.5715 N   0  0  0  0  0  0
    1.1622    6.5215   -0.1849 O   0  0  0  0  0  0
   -0.8069    8.2849    0.8460 C   0  0  0  0  0  0
   -2.1870    7.7405    0.4570 C   0  0  0  0  0  0
   -3.0997    7.3017    1.9594 S   0  0  0  0  0  0
    4.6777    1.6413    0.8272 H   0  0  0  0  0  0
    3.7024    3.9429    0.2274 H   0  0  0  0  0  0
    3.2109    0.7512   -0.6006 H   0  0  0  0  0  0
    3.5682    5.4463    2.6502 H   0  0  0  0  0  0
    3.3851    6.0635    1.0145 H   0  0  0  0  0  0
    1.6482    0.9247    2.9452 H   0  0  0  0  0  0
    1.3309    0.0781    1.4475 H   0  0  0  0  0  0
    3.7017   -1.9365    1.5622 H   0  0  0  0  0  0
    3.2543   -1.0198    0.1311 H   0  0  0  0  0  0
    4.9003   -0.9616    0.7504 H   0  0  0  0  0  0
    4.1925   -0.7010    3.7862 H   0  0  0  0  0  0
    5.4067    0.2476    2.9661 H   0  0  0  0  0  0
    4.1191    1.0508    3.8566 H   0  0  0  0  0  0
    1.0282    4.4734    1.7744 H   0  0  0  0  0  0
    1.3246    5.7192    2.9696 H   0  0  0  0  0  0
    2.2486   -1.1085    3.8362 H   0  0  0  0  0  0
   -0.2134    7.1938    2.5631 H   0  0  0  0  0  0
   -0.9156    9.1738    1.4698 H   0  0  0  0  0  0
   -0.2542    8.5817   -0.0470 H   0  0  0  0  0  0
   -2.7560    8.4853   -0.1005 H   0  0  0  0  0  0
   -2.0925    6.8556   -0.1734 H   0  0  0  0  0  0
   -3.3498    8.5564    2.3447 H   0  0  0  0  0  0
  1  2  1  0  0  0
  1  3  1  0  0  0
  1  4  2  0  0  0
  2  5  1  0  0  0
  2  6  1  0  0  0
  2 19  1  0  0  0
  3  7  1  0  0  0
  3 20  1  0  0  0
  5  8  1  0  0  0
  5  9  1  0  0  0
  5 10  1  0  0  0
  6 21  1  0  0  0
  7 11  1  0  0  0
  7 22  1  0  0  0
  7 23  1  0  0  0
  8 12  1  0  0  0
  8 24  1  0  0  0
  8 25  1  0  0  0
  9 26  1  0  0  0
  9 27  1  0  0  0
  9 28  1  0  0  0
 10 29  1  0  0  0
 10 30  1  0  0  0
 10 31  1  0  0  0
 11 13  1  0  0  0
 11 32  1  0  0  0
 11 33  1  0  0  0
 12 34  1  0  0  0
 13 14  1  0  0  0
 13 15  2  0  0  0
 14 16  1  0  0  0
 14 35  1  0  0  0
 16 17  1  0  0  0
 16 36  1  0  0  0
 16 37  1  0  0  0
 17 18  1  0  0  0
 17 38  1  0  0  0
 17 39  1  0  0  0
 18 40  1  0  0  0
M  END
> <i_ionizer_Ion_state_n>
0

> <i_ionizer_Tot_Q>
0

> <s_ionizer_Ion_centers>


> <s_ionizer_Ion_types>


> <s_ionizer_Ion_ctrs_in>


> <r_ionizer_Ionization_penalty>
0.00187065

> <r_ionizer_Ionization_penalty_charging>
0

> <r_ionizer_Ionization_penalty_neutral>
0.00187065

> <s_st_Chirality_1>
2_R_6_1_5_19

> <i_mmod_Serial_Number-OPLS-2005>
343

> <i_i_glide_lignum>
340

> <r_i_docking_score>
-1.51238

> <r_i_glide_gscore>
-1.51238

> <r_i_glide_lipo>
-0.732473

> <r_i_glide_hbond>
-0.716054

> <r_i_glide_metal>
0

> <r_i_glide_eburp>
-1.67899

> <r_i_glide_evdw>
-32.9446

> <r_i_glide_ecoul>
-9.34127

> <r_i_glide_erotb>
5.31668

> <r_i_glide_esite>
-0.131856

> <r_i_glide_emodel>
-55.7935

> <r_i_glide_energy>
-42.2858

> <r_i_glide_einternal>
7.1727

> <i_i_glide_confnum>
219

> <i_i_glide_posenum>
381

$$$$
C00116
                    3D
 Structure written by MMmdl.
 14 13  0  0  1  0            999 V2000
    3.5157    0.2620    3.4507 C   0  0  0  0  0  0
    3.0545   -1.0713    2.8342 C   0  0  0  0  0  0
    2.6633    0.6570    4.6689 C   0  0  0  0  0  0
    4.8483    0.1095    3.8979 O   0  0  0  0  0  0
    1.6522   -1.0767    2.6597 O   0  0  0  0  0  0
    1.3018    0.7451    4.3003 O   0  0  0  0  0  0
    3.4656    1.0526    2.7000 H   0  0  0  0  0  0
    3.5541   -1.2663    1.8842 H   0  0  0  0  0  0
    3.2995   -1.8995    3.4998 H   0  0  0  0  0  0
    2.7464   -0.0992    5.4501 H   0  0  0  0  0  0
    2.9966    1.6024    5.0993 H   0  0  0  0  0  0
    4.8637   -0.5996    4.5230 H   0  0  0  0  0  0
    1.2431   -0.9317    3.4991 H   0  0  0  0  0  0
    1.0210   -0.0983    3.9788 H   0  0  0  0  0  0
  1  2  1  0  0  0
  1  3  1  0  0  0
  1  4  1  0  0  0
  1  7  1  0  0  0
  2  5  1  0  0  0
  2  8  1  0  0  0
  2  9  1  0  0  0
  3  6  1  0  0  0
  3 10  1  0  0  0
  3 11  1  0  0  0
  4 12  1  0  0  0
  5 13  1  0  0  0
  6 14  1  0  0  0
M  END
> <i_ionizer_Ion_state_n>
0

> <i_ionizer_Tot_Q>
0

> <s_ionizer_Ion_centers>


> <s_ionizer_Ion_types>


> <s_ionizer_Ion_ctrs_in>


> <r_ionizer_Ionization_penalty>
0

> <r_ionizer_Ionization_penalty_charging>
0

> <r_ionizer_Ionization_penalty_neutral>
0

> <i_mmod_Serial_Number-OPLS-2005>
82

> <i_i_glide_lignum>
81

> <r_i_docking_score>
-1.43876

> <r_i_glide_gscore>
-1.43876

> <r_i_glide_lipo>
-0.271321

> <r_i_glide_hbond>
-0.551039

> <r_i_glide_metal>
0

> <r_i_glide_eburp>
-2.5

> <r_i_glide_evdw>
-11.3029

> <r_i_glide_ecoul>
-6.57122

> <r_i_glide_erotb>
3.16543

> <r_i_glide_esite>
0.279519

> <r_i_glide_emodel>
-20.8077

> <r_i_glide_energy>
-17.8741

> <r_i_glide_einternal>
0.572412

> <i_i_glide_confnum>
1

> <i_i_glide_posenum>
349

$$$$
C05275
                    3D
 Structure written by MMmdl.
107109  0  0  1  0            999 V2000
   -0.2941    6.8019    4.2061 C   0  0  0  0  0  0
   -0.8332    6.1150    2.9438 C   0  0  0  0  0  0
   -1.1110    8.0214    4.5802 C   0  0  0  0  0  0
    0.0625    4.9595    2.4744 C   0  0  0  0  0  0
    0.0944    3.7942    3.4740 C   0  0  0  0  0  0
    1.0871    2.6953    3.0675 C   0  0  0  0  0  0
    1.2153    1.5938    4.1296 C   0  0  0  0  0  0
    2.6276    1.0021    4.1965 C   0  0  0  0  0  0
    8.5764    7.6432   14.5026 N   0  0  0  0  0  0
   10.0088    7.8254   14.9104 C   0  0  1  0  0  0
    7.5409    7.3848   15.3743 C   0  0  0  0  0  0
    7.9767    7.7198   13.2598 C   0  0  0  0  0  0
   10.9807    7.1326   13.9518 C   0  0  1  0  0  0
   10.2947    9.1889   14.8309 O   0  0  0  0  0  0
    6.3619    7.3543   14.5826 C   0  0  0  0  0  0
    7.6006    7.2096   16.7275 N   0  0  0  0  0  0
    6.6852    7.5336   13.2471 N   0  0  0  0  0  0
   11.1604    8.1733   12.8576 C   0  0  1  0  0  0
   12.2101    6.8713   14.5962 O   0  0  0  0  0  0
   10.9386    9.5042   13.5961 C   0  0  1  0  0  0
    5.1493    7.1619   15.2884 C   0  0  0  0  0  0
    6.3859    7.0135   17.2492 C   0  0  0  0  0  0
   12.4350    7.9691   12.2572 O   0  0  0  0  0  0
   10.1299   10.5746   12.8432 C   0  0  0  0  0  0
    5.2014    6.9787   16.6287 N   0  0  0  0  0  0
    3.9520    7.1711   14.6888 N   0  0  0  0  0  0
   12.4731    7.0329   10.7296 P   0  0  0  0  0  0
   10.2207   11.8398   13.4749 O   0  0  0  0  0  0
   13.8914    7.3263   10.1903 O   0  0  0  0  0  0
   10.1631   13.2858   12.5729 P   0  0  0  0  0  0
    9.9950   14.5077   13.7456 O   0  0  0  0  0  0
   11.4624   13.4559   11.8857 O   0  0  0  0  0  0
    9.6697   16.1775   13.7498 P   0  0  0  0  0  0
    8.2491   16.3084   12.8203 O   0  0  0  0  0  0
    9.3545   16.6058   15.1325 O   0  0  0  0  0  0
    6.9725   15.9707   13.3323 C   0  0  0  0  0  0
    5.8962   15.9699   12.2176 C   0  0  0  0  0  0
    4.4765   15.8513   12.8759 C   0  0  2  0  0  0
    6.0194   17.2733   11.3936 C   0  0  0  0  0  0
    6.1757   14.7703   11.2815 C   0  0  0  0  0  0
    3.3639   15.3438   11.9325 C   0  0  0  0  0  0
    4.0705   17.0825   13.4580 O   0  0  0  0  0  0
    2.2213   14.9169   12.4958 N   0  0  0  0  0  0
    3.5508   15.3239   10.7154 O   0  0  0  0  0  0
    1.0331   14.4767   11.7753 C   0  0  0  0  0  0
    0.8290   12.9545   11.9058 C   0  0  0  0  0  0
   -0.4405   12.4459   11.2158 C   0  0  0  0  0  0
   -0.4178   11.1672   10.8142 N   0  0  0  0  0  0
   -1.4113   13.1845   11.0475 O   0  0  0  0  0  0
   -1.5396   10.4849   10.1839 C   0  0  0  0  0  0
   -1.3406   10.4009    8.6665 C   0  0  0  0  0  0
   -2.8107    9.7163    7.8458 S   0  0  0  0  0  0
   -2.1794    9.5883    6.1537 C   0  0  0  0  0  0
   -1.3798    8.3928    5.8450 C   0  0  0  0  0  0
   -2.4202   10.4670    5.3252 O   0  0  0  0  0  0
    0.7376    7.1177    4.0480 H   0  0  0  0  0  0
   -0.2838    6.0978    5.0392 H   0  0  0  0  0  0
   -1.8386    5.7388    3.1380 H   0  0  0  0  0  0
   -0.9277    6.8490    2.1424 H   0  0  0  0  0  0
   -1.4828    8.6053    3.7496 H   0  0  0  0  0  0
   -0.2894    4.5981    1.5073 H   0  0  0  0  0  0
    1.0766    5.3286    2.3155 H   0  0  0  0  0  0
    0.3571    4.1722    4.4629 H   0  0  0  0  0  0
   -0.9046    3.3654    3.5629 H   0  0  0  0  0  0
    0.7705    2.2521    2.1224 H   0  0  0  0  0  0
    2.0665    3.1401    2.8869 H   0  0  0  0  0  0
    0.9480    1.9954    5.1077 H   0  0  0  0  0  0
    0.5020    0.7964    3.9181 H   0  0  0  0  0  0
    2.6871    0.2244    4.9582 H   0  0  0  0  0  0
    2.9137    0.5566    3.2434 H   0  0  0  0  0  0
    3.3640    1.7671    4.4442 H   0  0  0  0  0  0
   10.0446    7.4516   15.9343 H   0  0  0  0  0  0
    8.5132    7.9294   12.3474 H   0  0  0  0  0  0
   10.5885    6.1851   13.5830 H   0  0  0  0  0  0
   10.3827    8.0316   12.1114 H   0  0  0  0  0  0
   12.5222    7.7085   14.9134 H   0  0  0  0  0  0
   11.9085    9.9205   13.8689 H   0  0  0  0  0  0
    6.3561    6.8728   18.3193 H   0  0  0  0  0  0
   10.5006   10.6426   11.8201 H   0  0  0  0  0  0
    9.0794   10.2950   12.7772 H   0  0  0  0  0  0
    3.1158    7.0255   15.2331 H   0  0  0  0  0  0
    3.8917    7.5210   13.7407 H   0  0  0  0  0  0
    7.0112   15.0032   13.8347 H   0  0  0  0  0  0
    6.7354   16.7023   14.0998 H   0  0  0  0  0  0
    4.5343   15.1324   13.6945 H   0  0  0  0  0  0
    5.2951   17.3103   10.5801 H   0  0  0  0  0  0
    5.8657   18.1568   12.0137 H   0  0  0  0  0  0
    7.0084   17.3657   10.9433 H   0  0  0  0  0  0
    5.5041   14.7478   10.4238 H   0  0  0  0  0  0
    6.0744   13.8222   11.8106 H   0  0  0  0  0  0
    7.1856   14.8098   10.8731 H   0  0  0  0  0  0
    4.0003   17.7546   12.7850 H   0  0  0  0  0  0
    2.1981   14.8795   13.5056 H   0  0  0  0  0  0
    0.1762   15.0088   12.1902 H   0  0  0  0  0  0
    1.1057   14.7708   10.7264 H   0  0  0  0  0  0
    1.6837   12.4250   11.4832 H   0  0  0  0  0  0
    0.7823   12.6834   12.9616 H   0  0  0  0  0  0
    0.4296   10.6363   10.9546 H   0  0  0  0  0  0
   -1.6354    9.4827   10.6048 H   0  0  0  0  0  0
   -2.4629   11.0205   10.4106 H   0  0  0  0  0  0
   -1.1371   11.3935    8.2624 H   0  0  0  0  0  0
   -0.4797    9.7711    8.4379 H   0  0  0  0  0  0
   -1.0072    7.8090    6.6741 H   0  0  0  0  0  0
   12.2129    5.5945   11.2277 O   0  5  0  0  0  0
   11.3148    7.6892    9.9475 O   0  5  0  0  0  0
    8.9200   13.2790   11.7663 O   0  5  0  0  0  0
   10.7681   16.8532   13.0203 O   0  5  0  0  0  0
  1  2  1  0  0  0
  1  3  1  0  0  0
  1 56  1  0  0  0
  1 57  1  0  0  0
  2  4  1  0  0  0
  2 58  1  0  0  0
  2 59  1  0  0  0
  3 54  2  0  0  0
  3 60  1  0  0  0
  4  5  1  0  0  0
  4 61  1  0  0  0
  4 62  1  0  0  0
  5  6  1  0  0  0
  5 63  1  0  0  0
  5 64  1  0  0  0
  6  7  1  0  0  0
  6 65  1  0  0  0
  6 66  1  0  0  0
  7  8  1  0  0  0
  7 67  1  0  0  0
  7 68  1  0  0  0
  8 69  1  0  0  0
  8 70  1  0  0  0
  8 71  1  0  0  0
  9 10  1  0  0  0
  9 11  1  0  0  0
  9 12  1  0  0  0
 10 13  1  0  0  0
 10 14  1  0  0  0
 10 72  1  0  0  0
 11 15  2  0  0  0
 11 16  1  0  0  0
 12 17  2  0  0  0
 12 73  1  0  0  0
 13 18  1  0  0  0
 13 19  1  0  0  0
 13 74  1  0  0  0
 14 20  1  0  0  0
 15 21  1  0  0  0
 15 17  1  0  0  0
 16 22  2  0  0  0
 18 23  1  0  0  0
 18 20  1  0  0  0
 18 75  1  0  0  0
 19 76  1  0  0  0
 20 24  1  0  0  0
 20 77  1  0  0  0
 21 25  2  0  0  0
 21 26  1  0  0  0
 22 25  1  0  0  0
 22 78  1  0  0  0
 23 27  1  0  0  0
 24 28  1  0  0  0
 24 79  1  0  0  0
 24 80  1  0  0  0
 26 81  1  0  0  0
 26 82  1  0  0  0
 27 29  2  0  0  0
 27104  1  0  0  0
 27105  1  0  0  0
 28 30  1  0  0  0
 30 31  1  0  0  0
 30 32  2  0  0  0
 30106  1  0  0  0
 31 33  1  0  0  0
 33 34  1  0  0  0
 33 35  2  0  0  0
 33107  1  0  0  0
 34 36  1  0  0  0
 36 37  1  0  0  0
 36 83  1  0  0  0
 36 84  1  0  0  0
 37 38  1  0  0  0
 37 39  1  0  0  0
 37 40  1  0  0  0
 38 41  1  0  0  0
 38 42  1  0  0  0
 38 85  1  0  0  0
 39 86  1  0  0  0
 39 87  1  0  0  0
 39 88  1  0  0  0
 40 89  1  0  0  0
 40 90  1  0  0  0
 40 91  1  0  0  0
 41 43  1  0  0  0
 41 44  2  0  0  0
 42 92  1  0  0  0
 43 45  1  0  0  0
 43 93  1  0  0  0
 45 46  1  0  0  0
 45 94  1  0  0  0
 45 95  1  0  0  0
 46 47  1  0  0  0
 46 96  1  0  0  0
 46 97  1  0  0  0
 47 48  1  0  0  0
 47 49  2  0  0  0
 48 50  1  0  0  0
 48 98  1  0  0  0
 50 51  1  0  0  0
 50 99  1  0  0  0
 50100  1  0  0  0
 51 52  1  0  0  0
 51101  1  0  0  0
 51102  1  0  0  0
 52 53  1  0  0  0
 53 54  1  0  0  0
 53 55  2  0  0  0
 54103  1  0  0  0
M  CHG  4 104  -1 105  -1 106  -1 107  -1
M  END
> <i_ionizer_Ion_state_n>
30

> <i_ionizer_Tot_Q>
-4

> <s_ionizer_Ion_centers>
104_105_106_107

> <s_ionizer_Ion_types>
OM_OM_OM_OM

> <s_ionizer_Ion_ctrs_in>
29_30_34_38

> <r_ionizer_Ionization_penalty>
4.85714e-05

> <r_ionizer_Ionization_penalty_charging>
2.98356e-05

> <r_ionizer_Ionization_penalty_neutral>
1.87357e-05

> <s_st_Chirality_1>
10_R_14_9_13_72

> <s_st_Chirality_2>
13_R_19_10_18_74

> <s_st_Chirality_3>
18_R_23_13_20_75

> <s_st_Chirality_4>
20_R_14_18_24_77

> <s_st_Chirality_5>
38_R_42_41_37_85

> <s_st_EZ_1>
1_3_54_53_E

> <i_mmod_Serial_Number-OPLS-2005>
660

> <i_i_glide_lignum>
653

> <r_i_docking_score>
-1.34446

> <r_i_glide_gscore>
-1.34446

> <r_i_glide_lipo>
-1.00571

> <r_i_glide_hbond>
-0.202533

> <r_i_glide_metal>
0

> <r_i_glide_eburp>
1.22515e-17

> <r_i_glide_evdw>
-28.0635

> <r_i_glide_ecoul>
4.78641

> <r_i_glide_erotb>
0.562454

> <r_i_glide_esite>
1.06777

> <r_i_glide_emodel>
-41.8622

> <r_i_glide_energy>
-23.2771

> <r_i_glide_einternal>
11.583

> <i_i_glide_confnum>
1248

> <i_i_glide_posenum>
389

$$$$
C00492
                    3D
 Structure written by MMmdl.
 66 68  0  0  1  0            999 V2000
    3.7406   -0.1218    2.5859 C   0  0  2  0  0  0
    3.0404    1.0947    2.7413 O   0  0  0  0  0  0
    5.1049    0.0940    2.3410 O   0  0  0  0  0  0
    3.2283   -0.9767    1.3945 C   0  0  2  0  0  0
    3.6646   -0.8497    3.9461 C   0  0  0  0  0  0
    2.7897    1.8448    1.5791 C   0  0  1  0  0  0
    5.5209   -0.5149    1.1203 C   0  0  1  0  0  0
    4.2381   -0.6845    0.3010 C   0  0  1  0  0  0
    1.9029   -0.6988    0.9917 O   0  0  0  0  0  0
    2.4397   -0.6616    4.6260 O   0  0  0  0  0  0
    1.5545    2.4974    1.6256 O   0  0  0  0  0  0
    3.8833    2.9200    1.4388 C   0  0  1  0  0  0
    6.6072    0.3401    0.4484 C   0  0  0  0  0  0
    4.3525   -1.7865   -0.5771 O   0  0  0  0  0  0
    1.3512    3.3579    2.7519 C   0  0  2  0  0  0
    3.8327    3.8671    2.6472 C   0  0  2  0  0  0
    5.1601    2.3372    1.2724 O   0  0  0  0  0  0
    6.9689   -0.2163   -0.7985 O   0  0  0  0  0  0
   -0.1006    3.8664    2.6219 C   0  0  0  0  0  0
    2.4227    4.4779    2.7446 C   0  0  2  0  0  0
    4.7510    4.9204    2.4218 O   0  0  0  0  0  0
   -0.3559    4.9807    3.4937 O   0  0  0  0  0  0
    2.3553    5.2312    3.9405 O   0  0  0  0  0  0
   -1.0945    6.0625    2.9624 C   0  0  1  0  0  0
   -1.1478    7.1898    3.8102 O   0  0  0  0  0  0
   -0.5125    6.4876    1.5932 C   0  0  1  0  0  0
   -2.0951    8.2220    3.4608 C   0  0  1  0  0  0
   -1.0200    7.8939    1.1867 C   0  0  2  0  0  0
    0.9115    6.4798    1.6676 O   0  0  0  0  0  0
   -2.3198    8.2741    1.9198 C   0  0  1  0  0  0
   -3.3531    8.0228    4.3240 C   0  0  0  0  0  0
   -1.1909    7.9980   -0.2246 O   0  0  0  0  0  0
   -3.4036    7.4430    1.5001 O   0  0  0  0  0  0
   -4.2334    9.1378    4.2498 O   0  0  0  0  0  0
    3.3016   -2.0291    1.6754 H   0  0  0  0  0  0
    3.7739   -1.9206    3.7701 H   0  0  0  0  0  0
    4.5019   -0.5375    4.5712 H   0  0  0  0  0  0
    2.7916    1.2456    0.6725 H   0  0  0  0  0  0
    5.9256   -1.4935    1.3866 H   0  0  0  0  0  0
    3.9887    0.2235   -0.2489 H   0  0  0  0  0  0
    1.8784    0.1858    0.6595 H   0  0  0  0  0  0
    1.7598   -1.1017    4.1387 H   0  0  0  0  0  0
    3.6680    3.4820    0.5282 H   0  0  0  0  0  0
    6.2711    1.3672    0.3054 H   0  0  0  0  0  0
    7.4956    0.3769    1.0795 H   0  0  0  0  0  0
    4.1809   -1.4802   -1.4560 H   0  0  0  0  0  0
    1.4483    2.7563    3.6542 H   0  0  0  0  0  0
    4.0968    3.3405    3.5660 H   0  0  0  0  0  0
    5.2834    1.7121    1.9713 H   0  0  0  0  0  0
    6.1868   -0.3240   -1.3187 H   0  0  0  0  0  0
   -0.2864    4.1875    1.5967 H   0  0  0  0  0  0
   -0.8146    3.0684    2.8306 H   0  0  0  0  0  0
    2.2483    5.1438    1.8978 H   0  0  0  0  0  0
    4.6269    5.2262    1.5352 H   0  0  0  0  0  0
    1.6325    5.8392    3.8753 H   0  0  0  0  0  0
   -2.1265    5.7011    2.8597 H   0  0  0  0  0  0
   -0.8232    5.7402    0.8618 H   0  0  0  0  0  0
   -1.6350    9.1636    3.7630 H   0  0  0  0  0  0
   -0.2701    8.6293    1.4838 H   0  0  0  0  0  0
    1.1886    7.1885    2.2643 H   0  0  0  0  0  0
   -2.5867    9.2991    1.6589 H   0  0  0  0  0  0
   -3.8916    7.1251    4.0247 H   0  0  0  0  0  0
   -3.0621    7.8790    5.3648 H   0  0  0  0  0  0
   -1.2126    8.9347   -0.4650 H   0  0  0  0  0  0
   -3.1535    6.5205    1.6497 H   0  0  0  0  0  0
   -3.7820    9.9033    4.6323 H   0  0  0  0  0  0
  1  2  1  0  0  0
  1  3  1  0  0  0
  1  4  1  0  0  0
  1  5  1  0  0  0
  2  6  1  0  0  0
  3  7  1  0  0  0
  4  8  1  0  0  0
  4  9  1  0  0  0
  4 35  1  0  0  0
  5 10  1  0  0  0
  5 36  1  0  0  0
  5 37  1  0  0  0
  6 11  1  0  0  0
  6 12  1  0  0  0
  6 38  1  0  0  0
  7 13  1  0  0  0
  7  8  1  0  0  0
  7 39  1  0  0  0
  8 14  1  0  0  0
  8 40  1  0  0  0
  9 41  1  0  0  0
 10 42  1  0  0  0
 11 15  1  0  0  0
 12 16  1  0  0  0
 12 17  1  0  0  0
 12 43  1  0  0  0
 13 18  1  0  0  0
 13 44  1  0  0  0
 13 45  1  0  0  0
 14 46  1  0  0  0
 15 19  1  0  0  0
 15 20  1  0  0  0
 15 47  1  0  0  0
 16 21  1  0  0  0
 16 20  1  0  0  0
 16 48  1  0  0  0
 17 49  1  0  0  0
 18 50  1  0  0  0
 19 22  1  0  0  0
 19 51  1  0  0  0
 19 52  1  0  0  0
 20 23  1  0  0  0
 20 53  1  0  0  0
 21 54  1  0  0  0
 22 24  1  0  0  0
 23 55  1  0  0  0
 24 25  1  0  0  0
 24 26  1  0  0  0
 24 56  1  0  0  0
 25 27  1  0  0  0
 26 28  1  0  0  0
 26 29  1  0  0  0
 26 57  1  0  0  0
 27 30  1  0  0  0
 27 31  1  0  0  0
 27 58  1  0  0  0
 28 32  1  0  0  0
 28 30  1  0  0  0
 28 59  1  0  0  0
 29 60  1  0  0  0
 30 33  1  0  0  0
 30 61  1  0  0  0
 31 34  1  0  0  0
 31 62  1  0  0  0
 31 63  1  0  0  0
 32 64  1  0  0  0
 33 65  1  0  0  0
 34 66  1  0  0  0
M  END
> <i_ionizer_Ion_state_n>
0

> <i_ionizer_Tot_Q>
0

> <s_ionizer_Ion_centers>


> <s_ionizer_Ion_types>


> <s_ionizer_Ion_ctrs_in>


> <r_ionizer_Ionization_penalty>
0

> <r_ionizer_Ionization_penalty_charging>
0

> <r_ionizer_Ionization_penalty_neutral>
0

> <s_st_Chirality_1>
1_S_2_3_4_5

> <s_st_Chirality_2>
4_S_9_1_8_35

> <s_st_Chirality_3>
6_R_2_11_12_38

> <s_st_Chirality_4>
7_R_3_8_13_39

> <s_st_Chirality_5>
8_R_14_4_7_40

> <s_st_Chirality_6>
12_R_17_6_16_43

> <s_st_Chirality_7>
15_R_11_20_19_47

> <s_st_Chirality_8>
16_S_21_12_20_48

> <s_st_Chirality_9>
20_R_23_16_15_53

> <s_st_Chirality_10>
24_S_25_22_26_56

> <s_st_Chirality_11>
26_R_29_24_28_57

> <s_st_Chirality_12>
27_R_25_30_31_58

> <s_st_Chirality_13>
28_S_32_26_30_59

> <s_st_Chirality_14>
30_S_33_28_27_61

> <i_mmod_Serial_Number-OPLS-2005>
259

> <i_i_glide_lignum>
257

> <r_i_docking_score>
-1.31364

> <r_i_glide_gscore>
-1.31364

> <r_i_glide_lipo>
-1.33501

> <r_i_glide_hbond>
-0.735393

> <r_i_glide_metal>
0

> <r_i_glide_eburp>
-3.79471e-17

> <r_i_glide_evdw>
13.0541

> <r_i_glide_ecoul>
-13.4084

> <r_i_glide_erotb>
0.734642

> <r_i_glide_esite>
0.318635

> <r_i_glide_emodel>
11.4738

> <r_i_glide_energy>
-0.354337

> <r_i_glide_einternal>
26.7666

> <i_i_glide_confnum>
386

> <i_i_glide_posenum>
205

$$$$
C05922
                    3D
 Structure written by MMmdl.
 47 48  0  0  1  0            999 V2000
   -2.1271    9.0273    5.4191 C   0  0  0  0  0  0
   -3.4338    9.1418    5.7858 C   0  0  0  0  0  0
   -1.6570    8.1203    4.4719 N   0  0  0  0  0  0
   -1.1278    9.8304    5.9862 N   0  0  0  0  0  0
   -3.7938   10.1065    6.8506 C   0  0  0  0  0  0
   -4.3965    8.3088    5.1910 N   0  0  0  0  0  0
   -2.3792    7.4855    3.3723 C   0  0  2  0  0  0
   -1.4439   10.6941    6.8940 C   0  0  0  0  0  0
   -2.7616   10.8384    7.3267 N   0  0  0  0  0  0
   -4.9189   10.2653    7.3230 O   0  0  0  0  0  0
   -5.7154    8.5451    5.1053 C   0  0  0  0  0  0
   -1.8931    6.2067    3.0996 O   0  0  0  0  0  0
   -2.2119    8.2794    2.0774 C   0  0  1  0  0  0
   -0.5664   11.5462    7.5311 N   0  0  0  0  0  0
   -6.2327    9.6046    5.4498 O   0  0  0  0  0  0
   -0.9069    6.2401    2.0665 C   0  0  1  0  0  0
   -0.9460    7.6661    1.5021 C   0  0  1  0  0  0
   -3.3269    8.1032    1.2233 O   0  0  0  0  0  0
    0.4529    5.8315    2.6622 C   0  0  0  0  0  0
   -0.8844    7.7365    0.0895 O   0  0  0  0  0  0
    0.4807    4.4420    2.9293 O   0  0  0  0  0  0
    1.8964    3.5056    2.7405 P   0  0  0  0  0  0
    1.5582    2.0406    3.5387 O   0  0  0  0  0  0
    2.0859    3.2421    1.2960 O   0  0  0  0  0  0
    2.1255    0.4358    3.4521 P   0  0  0  0  0  0
    3.2891    0.4930    2.2143 O   0  0  0  0  0  0
    2.8662    0.1254    4.6986 O   0  0  0  0  0  0
    4.0768    1.4756    0.9521 P   0  0  0  0  0  0
    2.9497    1.6598   -0.0880 O   0  0  0  0  0  0
   -0.6508    7.9766    4.4570 H   0  0  0  0  0  0
   -4.0424    7.4957    4.6915 H   0  0  0  0  0  0
   -3.4276    7.3813    3.6497 H   0  0  0  0  0  0
   -2.9670   11.5088    8.0516 H   0  0  0  0  0  0
   -6.2743    7.6846    4.7081 H   0  0  0  0  0  0
   -2.0991    9.3458    2.2817 H   0  0  0  0  0  0
    0.4242   11.5573    7.3354 H   0  0  0  0  0  0
   -0.8353   12.2096    8.2426 H   0  0  0  0  0  0
   -1.2081    5.5216    1.3031 H   0  0  0  0  0  0
   -0.1055    8.2205    1.8938 H   0  0  0  0  0  0
   -3.7108    8.9564    1.0839 H   0  0  0  0  0  0
    1.2647    6.1055    1.9894 H   0  0  0  0  0  0
    0.6294    6.3669    3.5948 H   0  0  0  0  0  0
   -0.9188    8.6596   -0.1519 H   0  0  0  0  0  0
    2.9671    4.1951    3.4958 O   0  5  0  0  0  0
    1.0115   -0.4439    3.0284 O   0  5  0  0  0  0
    4.4943    2.7398    1.7381 O   0  5  0  0  0  0
    5.2418    0.5546    0.5240 O   0  5  0  0  0  0
  1  2  2  0  0  0
  1  3  1  0  0  0
  1  4  1  0  0  0
  2  5  1  0  0  0
  2  6  1  0  0  0
  3  7  1  0  0  0
  3 30  1  0  0  0
  4  8  2  0  0  0
  5  9  1  0  0  0
  5 10  2  0  0  0
  6 11  1  0  0  0
  6 31  1  0  0  0
  7 12  1  0  0  0
  7 13  1  0  0  0
  7 32  1  0  0  0
  8 14  1  0  0  0
  8  9  1  0  0  0
  9 33  1  0  0  0
 11 15  2  0  0  0
 11 34  1  0  0  0
 12 16  1  0  0  0
 13 17  1  0  0  0
 13 18  1  0  0  0
 13 35  1  0  0  0
 14 36  1  0  0  0
 14 37  1  0  0  0
 16 19  1  0  0  0
 16 17  1  0  0  0
 16 38  1  0  0  0
 17 20  1  0  0  0
 17 39  1  0  0  0
 18 40  1  0  0  0
 19 21  1  0  0  0
 19 41  1  0  0  0
 19 42  1  0  0  0
 20 43  1  0  0  0
 21 22  1  0  0  0
 22 23  1  0  0  0
 22 24  2  0  0  0
 22 44  1  0  0  0
 23 25  1  0  0  0
 25 26  1  0  0  0
 25 27  2  0  0  0
 25 45  1  0  0  0
 26 28  1  0  0  0
 28 29  2  0  0  0
 28 46  1  0  0  0
 28 47  1  0  0  0
M  CHG  4  44  -1  45  -1  46  -1  47  -1
M  END
> <i_ionizer_Ion_state_n>
15

> <i_ionizer_Tot_Q>
-4

> <s_ionizer_Ion_centers>
44_45_46_47

> <s_ionizer_Ion_types>
OM_OM_OM_OM

> <s_ionizer_Ion_ctrs_in>
24_28_31_32

> <r_ionizer_Ionization_penalty>
2.98356e-05

> <r_ionizer_Ionization_penalty_charging>
2.98356e-05

> <r_ionizer_Ionization_penalty_neutral>
0

> <s_st_Chirality_1>
7_R_12_3_13_32

> <s_st_Chirality_2>
13_R_18_7_17_35

> <s_st_Chirality_3>
16_R_12_17_19_38

> <s_st_Chirality_4>
17_R_20_13_16_39

> <i_mmod_Serial_Number-OPLS-2005>
824

> <i_i_glide_lignum>
812

> <r_i_docking_score>
-1.11757

> <r_i_glide_gscore>
-1.11757

> <r_i_glide_lipo>
-0.50374

> <r_i_glide_hbond>
-0.5

> <r_i_glide_metal>
0

> <r_i_glide_eburp>
0

> <r_i_glide_evdw>
-14.6102

> <r_i_glide_ecoul>
-6.04526

> <r_i_glide_erotb>
0.736266

> <r_i_glide_esite>
0.923246

> <r_i_glide_emodel>
-56.0581

> <r_i_glide_energy>
-20.6554

> <r_i_glide_einternal>
15.3604

> <i_i_glide_confnum>
399

> <i_i_glide_posenum>
117

$$$$
C05985
                    3D
 Structure written by MMmdl.
  6  5  0  0  1  0            999 V2000
    1.5035    1.4304    4.1090 C   0  0  0  0  0  0
    0.9025    2.5436    3.3615 C   0  0  0  0  0  0
    1.9845    0.4799    4.7060 C   0  0  0  0  0  0
    0.1004    3.3024    3.9015 O   0  0  0  0  0  0
    1.2168    2.6377    2.3220 H   0  0  0  0  0  0
    2.4065   -0.3481    5.2300 H   0  0  0  0  0  0
  1  2  1  0  0  0
  1  3  3  0  0  0
  2  4  2  0  0  0
  2  5  1  0  0  0
  3  6  1  0  0  0
M  END
> <i_ionizer_Ion_state_n>
0

> <i_ionizer_Tot_Q>
0

> <s_ionizer_Ion_centers>


> <s_ionizer_Ion_types>


> <s_ionizer_Ion_ctrs_in>


> <r_ionizer_Ionization_penalty>
0

> <r_ionizer_Ionization_penalty_charging>
0

> <r_ionizer_Ionization_penalty_neutral>
0

> <i_mmod_Serial_Number-OPLS-2005>
841

> <i_i_glide_lignum>
829

> <r_i_docking_score>
-1.11289

> <r_i_glide_gscore>
-1.11289

> <r_i_glide_lipo>
-0.161972

> <r_i_glide_hbond>
-0.5

> <r_i_glide_metal>
0

> <r_i_glide_eburp>
-2.5

> <r_i_glide_evdw>
-7.12074

> <r_i_glide_ecoul>
-3.68175

> <r_i_glide_erotb>
3.3629

> <r_i_glide_esite>
-0.375984

> <r_i_glide_emodel>
-14.8721

> <r_i_glide_energy>
-10.8025

> <r_i_glide_einternal>
-0.0841991

> <i_i_glide_confnum>
1

> <i_i_glide_posenum>
459

$$$$
C06114
                    3D
 Structure written by MMmdl.
 27 26  0  0  1  0            999 V2000
    4.7412    0.0597    0.6777 C   0  0  0  0  0  0
    3.7249   -0.0658    1.8139 C   0  0  0  0  0  0
    5.1378   -1.0857    0.1070 N   0  0  0  0  0  0
    5.1510    1.1656    0.3247 O   0  0  0  0  0  0
    3.8714    1.0523    2.8647 C   0  0  0  0  0  0
    5.9955   -1.1567   -1.0669 C   0  0  0  0  0  0
    2.8217    0.9875    3.9954 C   0  0  1  0  0  0
    7.3911   -1.6634   -0.6904 C   0  0  0  0  0  0
    1.3909    1.1504    3.4660 C   0  0  0  0  0  0
    8.1561   -0.6786    0.0885 C   0  0  0  0  0  0
    0.7159    2.1133    3.8946 O   0  0  0  0  0  0
    8.7581    0.0963    0.7012 N   0  0  0  0  0  0
    2.7235   -0.0426    1.3835 H   0  0  0  0  0  0
    3.8412   -1.0422    2.2857 H   0  0  0  0  0  0
    4.8284   -1.9570    0.5132 H   0  0  0  0  0  0
    4.8767    1.0229    3.2881 H   0  0  0  0  0  0
    3.7856    2.0191    2.3668 H   0  0  0  0  0  0
    5.5431   -1.8204   -1.8051 H   0  0  0  0  0  0
    6.0674   -0.1680   -1.5225 H   0  0  0  0  0  0
    3.0307    1.7740    4.7222 H   0  0  0  0  0  0
    7.3204   -2.5752   -0.0968 H   0  0  0  0  0  0
    7.9672   -1.9002   -1.5853 H   0  0  0  0  0  0
    2.2241   -0.3072    5.4518 H   0  0  0  0  0  0
    2.6781   -1.0417    4.0492 H   0  0  0  0  0  0
    2.8991   -0.3021    4.7007 N   0  3  0  0  0  0
    3.8281   -0.4356    5.0721 H   0  0  0  0  0  0
    1.0038    0.3148    2.6212 O   0  5  0  0  0  0
  1  2  1  0  0  0
  1  3  1  0  0  0
  1  4  2  0  0  0
  2  5  1  0  0  0
  2 13  1  0  0  0
  2 14  1  0  0  0
  3  6  1  0  0  0
  3 15  1  0  0  0
  5  7  1  0  0  0
  5 16  1  0  0  0
  5 17  1  0  0  0
  6  8  1  0  0  0
  6 18  1  0  0  0
  6 19  1  0  0  0
  7  9  1  0  0  0
  7 20  1  0  0  0
  7 25  1  0  0  0
  8 10  1  0  0  0
  8 21  1  0  0  0
  8 22  1  0  0  0
  9 11  2  0  0  0
  9 27  1  0  0  0
 10 12  3  0  0  0
 23 25  1  0  0  0
 24 25  1  0  0  0
 25 26  1  0  0  0
M  CHG  2  25   1  27  -1
M  END
> <i_ionizer_Ion_state_n>
3

> <i_ionizer_Tot_Q>
0

> <s_ionizer_Ion_centers>
25_27

> <s_ionizer_Ion_types>
N5_OM

> <s_ionizer_Ion_ctrs_in>
10_12

> <r_ionizer_Ionization_penalty>
0.000779521

> <r_ionizer_Ionization_penalty_charging>
0.000779521

> <r_ionizer_Ionization_penalty_neutral>
0

> <s_st_Chirality_1>
7_S_25_9_5_20

> <i_mmod_Serial_Number-OPLS-2005>
855

> <i_i_glide_lignum>
843

> <r_i_docking_score>
-0.988625

> <r_i_glide_gscore>
-0.988625

> <r_i_glide_lipo>
-0.429247

> <r_i_glide_hbond>
-0.379041

> <r_i_glide_metal>
0

> <r_i_glide_eburp>
-2.2787

> <r_i_glide_evdw>
-23.0576

> <r_i_glide_ecoul>
-6.62752

> <r_i_glide_erotb>
5.637

> <r_i_glide_esite>
-1.03127

> <r_i_glide_emodel>
-52.0327

> <r_i_glide_energy>
-29.6852

> <r_i_glide_einternal>
6.06384

> <i_i_glide_confnum>
59

> <i_i_glide_posenum>
906

$$$$
C00579
                    3D
 Structure written by MMmdl.
 29 28  0  0  1  0            999 V2000
    1.5645    3.6234    2.8568 C   0  0  0  0  0  0
    3.0048    3.0788    2.7718 C   0  0  2  0  0  0
    1.3226    4.8874    2.0126 C   0  0  0  0  0  0
    3.1224    1.6651    3.3758 C   0  0  0  0  0  0
    4.1121    4.2012    3.6812 S   0  0  0  0  0  0
   -0.1435    5.3436    2.0458 C   0  0  0  0  0  0
    2.2586    0.6104    2.6638 C   0  0  0  0  0  0
   -0.3978    6.5702    1.1505 C   0  0  0  0  0  0
    1.8232   -0.6963    3.8411 S   0  0  0  0  0  0
   -1.7856    7.1877    1.3508 C   0  0  0  0  0  0
   -1.8976    8.4999    1.1360 N   0  0  0  0  0  0
   -2.7470    6.5002    1.6886 O   0  0  0  0  0  0
    0.8763    2.8506    2.5120 H   0  0  0  0  0  0
    1.3012    3.8151    3.8980 H   0  0  0  0  0  0
    3.3161    3.0497    1.7269 H   0  0  0  0  0  0
    1.9559    5.7007    2.3675 H   0  0  0  0  0  0
    1.6175    4.6954    0.9803 H   0  0  0  0  0  0
    4.1672    1.3504    3.3820 H   0  0  0  0  0  0
    2.8150    1.7053    4.4217 H   0  0  0  0  0  0
    3.8599    5.2836    2.9400 H   0  0  0  0  0  0
   -0.7823    4.5176    1.7292 H   0  0  0  0  0  0
   -0.4254    5.5762    3.0739 H   0  0  0  0  0  0
    1.3432    1.0577    2.2755 H   0  0  0  0  0  0
    2.7883    0.1614    1.8238 H   0  0  0  0  0  0
    0.3609    7.3285    1.3497 H   0  0  0  0  0  0
   -0.2951    6.2917    0.1012 H   0  0  0  0  0  0
    3.0787   -1.0254    4.1583 H   0  0  0  0  0  0
   -2.7949    8.9470    1.2549 H   0  0  0  0  0  0
   -1.0913    9.0392    0.8571 H   0  0  0  0  0  0
  1  2  1  0  0  0
  1  3  1  0  0  0
  1 13  1  0  0  0
  1 14  1  0  0  0
  2  4  1  0  0  0
  2  5  1  0  0  0
  2 15  1  0  0  0
  3  6  1  0  0  0
  3 16  1  0  0  0
  3 17  1  0  0  0
  4  7  1  0  0  0
  4 18  1  0  0  0
  4 19  1  0  0  0
  5 20  1  0  0  0
  6  8  1  0  0  0
  6 21  1  0  0  0
  6 22  1  0  0  0
  7  9  1  0  0  0
  7 23  1  0  0  0
  7 24  1  0  0  0
  8 10  1  0  0  0
  8 25  1  0  0  0
  8 26  1  0  0  0
  9 27  1  0  0  0
 10 11  1  0  0  0
 10 12  2  0  0  0
 11 28  1  0  0  0
 11 29  1  0  0  0
M  END
> <i_ionizer_Ion_state_n>
0

> <i_ionizer_Tot_Q>
0

> <s_ionizer_Ion_centers>


> <s_ionizer_Ion_types>


> <s_ionizer_Ion_ctrs_in>


> <r_ionizer_Ionization_penalty>
0.0037413

> <r_ionizer_Ionization_penalty_charging>
0

> <r_ionizer_Ionization_penalty_neutral>
0.0037413

> <s_st_Chirality_1>
2_R_5_4_1_15

> <i_mmod_Serial_Number-OPLS-2005>
284

> <i_i_glide_lignum>
282

> <r_i_docking_score>
-0.679267

> <r_i_glide_gscore>
-0.679267

> <r_i_glide_lipo>
-0.446481

> <r_i_glide_hbond>
-0.5

> <r_i_glide_metal>
0

> <r_i_glide_eburp>
-2.21698

> <r_i_glide_evdw>
-25.2526

> <r_i_glide_ecoul>
-6.74745

> <r_i_glide_erotb>
5.27195

> <r_i_glide_esite>
-0.0928023

> <r_i_glide_emodel>
-42.5673

> <r_i_glide_energy>
-32.0001

> <r_i_glide_einternal>
4.66227

> <i_i_glide_confnum>
149

> <i_i_glide_posenum>
533

$$$$
C05933
                    3D
 Structure written by MMmdl.
 27 26  0  0  1  0            999 V2000
    1.4331    4.9189    2.0195 C   0  0  0  0  0  0
    0.2122    5.8585    2.1123 C   0  0  2  0  0  0
    1.5937    3.9843    3.2298 C   0  0  0  0  0  0
   -1.1063    5.0989    2.3003 C   0  0  0  0  0  0
    2.5830    2.8465    2.9563 C   0  0  0  0  0  0
   -2.1006    5.4963    1.6526 O   0  0  0  0  0  0
    1.9002    1.5655    2.8888 N   0  0  0  0  0  0
    2.1700    0.3501    3.5271 C   0  0  0  0  0  0
    3.3037    0.4963    4.3052 N   0  0  0  0  0  0
    1.5555   -0.7641    3.4819 N   0  0  0  0  0  0
    0.4098   -0.7002    2.6369 O   0  0  0  0  0  0
    1.3749    4.3234    1.1073 H   0  0  0  0  0  0
    2.3362    5.5233    1.9278 H   0  0  0  0  0  0
    0.3542    6.5252    2.9643 H   0  0  0  0  0  0
    1.9329    4.5612    4.0910 H   0  0  0  0  0  0
    0.6262    3.5611    3.5022 H   0  0  0  0  0  0
   -0.6512    7.3507    1.0244 H   0  0  0  0  0  0
    0.9829    7.2342    0.8034 H   0  0  0  0  0  0
    3.1097    3.0181    2.0171 H   0  0  0  0  0  0
    3.3284    2.8110    3.7510 H   0  0  0  0  0  0
    1.2179    1.5189    2.1470 H   0  0  0  0  0  0
    3.7430   -0.3713    4.5774 H   0  0  0  0  0  0
    3.9889    1.1513    3.9588 H   0  0  0  0  0  0
    0.0309   -1.5567    2.7618 H   0  0  0  0  0  0
    0.1254    6.7142    0.9175 N   0  3  0  0  0  0
   -0.0335    6.1284    0.1100 H   0  0  0  0  0  0
   -1.0985    4.1384    3.0999 O   0  5  0  0  0  0
  1  2  1  0  0  0
  1  3  1  0  0  0
  1 12  1  0  0  0
  1 13  1  0  0  0
  2  4  1  0  0  0
  2 14  1  0  0  0
  2 25  1  0  0  0
  3  5  1  0  0  0
  3 15  1  0  0  0
  3 16  1  0  0  0
  4  6  2  0  0  0
  4 27  1  0  0  0
  5  7  1  0  0  0
  5 19  1  0  0  0
  5 20  1  0  0  0
  7  8  1  0  0  0
  7 21  1  0  0  0
  8  9  1  0  0  0
  8 10  2  0  0  0
  9 22  1  0  0  0
  9 23  1  0  0  0
 10 11  1  0  0  0
 11 24  1  0  0  0
 17 25  1  0  0  0
 18 25  1  0  0  0
 25 26  1  0  0  0
M  CHG  2  25   1  27  -1
M  END
> <i_ionizer_Ion_state_n>
3

> <i_ionizer_Tot_Q>
0

> <s_ionizer_Ion_centers>
25_27

> <s_ionizer_Ion_types>
N5_OM

> <s_ionizer_Ion_ctrs_in>
5_7

> <r_ionizer_Ionization_penalty>
0.000779521

> <r_ionizer_Ionization_penalty_charging>
0.000779521

> <r_ionizer_Ionization_penalty_neutral>
0

> <s_st_Chirality_1>
2_R_25_4_1_14

> <s_st_EZ_1>
7_8_10_11_Z

> <i_mmod_Serial_Number-OPLS-2005>
829

> <i_i_glide_lignum>
817

> <r_i_docking_score>
-0.184961

> <r_i_glide_gscore>
-0.184961

> <r_i_glide_lipo>
-0.358905

> <r_i_glide_hbond>
-1.5162

> <r_i_glide_metal>
0

> <r_i_glide_eburp>
-2.34694

> <r_i_glide_evdw>
-17.8118

> <r_i_glide_ecoul>
-7.9605

> <r_i_glide_erotb>
6.08721

> <r_i_glide_esite>
0.170872

> <r_i_glide_emodel>
-50.6207

> <r_i_glide_energy>
-25.7723

> <r_i_glide_einternal>
4.2829

> <i_i_glide_confnum>
131

> <i_i_glide_posenum>
302

$$$$
C00469
                    3D
 Structure written by MMmdl.
  9  8  0  0  1  0            999 V2000
    4.7912    0.9751    4.6268 C   0  0  0  0  0  0
    3.5035    0.2088    4.3110 C   0  0  0  0  0  0
    5.3440    0.4999    5.8351 O   0  0  0  0  0  0
    5.5182    0.8480    3.8242 H   0  0  0  0  0  0
    4.5879    2.0423    4.7195 H   0  0  0  0  0  0
    3.0605    0.5619    3.3796 H   0  0  0  0  0  0
    3.6967   -0.8590    4.2038 H   0  0  0  0  0  0
    2.7638    0.3386    5.1016 H   0  0  0  0  0  0
    5.3003   -0.4442    5.8366 H   0  0  0  0  0  0
  1  2  1  0  0  0
  1  3  1  0  0  0
  1  4  1  0  0  0
  1  5  1  0  0  0
  2  6  1  0  0  0
  2  7  1  0  0  0
  2  8  1  0  0  0
  3  9  1  0  0  0
M  END
> <i_ionizer_Ion_state_n>
0

> <i_ionizer_Tot_Q>
0

> <s_ionizer_Ion_centers>


> <s_ionizer_Ion_types>


> <s_ionizer_Ion_ctrs_in>


> <r_ionizer_Ionization_penalty>
0

> <r_ionizer_Ionization_penalty_charging>
0

> <r_ionizer_Ionization_penalty_neutral>
0

> <i_mmod_Serial_Number-OPLS-2005>
250

> <i_i_glide_lignum>
248

> <r_i_docking_score>
0.0222103

> <r_i_glide_gscore>
0.0222103

> <r_i_glide_lipo>
-0.194412

> <r_i_glide_hbond>
-0.45

> <r_i_glide_metal>
0

> <r_i_glide_eburp>
-2.5

> <r_i_glide_evdw>
-5.37548

> <r_i_glide_ecoul>
-5.17099

> <r_i_glide_erotb>
4.16088

> <r_i_glide_esite>
-0.0471157

> <r_i_glide_emodel>
-11.8676

> <r_i_glide_energy>
-10.5465

> <r_i_glide_einternal>
0.249613

> <i_i_glide_confnum>
3

> <i_i_glide_posenum>
975

$$$$
C00750
                    3D
 Structure written by MMmdl.
 44 43  0  0  1  0            999 V2000
    2.2697    5.8876    0.3073 C   0  0  0  0  0  0
    1.4270    7.1732    0.3026 C   0  0  0  0  0  0
    2.2466    5.1700    1.6653 C   0  0  0  0  0  0
   -0.0704    6.8998    0.5101 C   0  0  0  0  0  0
    3.0249    3.1632    2.8930 C   0  0  0  0  0  0
   -2.3028    7.9606    0.6866 C   0  0  0  0  0  0
    3.7274    1.8041    2.7468 C   0  0  0  0  0  0
   -2.5762    7.5264    2.1353 C   0  0  0  0  0  0
    3.7838    1.0246    4.0704 C   0  0  0  0  0  0
   -2.4925    8.6976    3.1272 C   0  0  0  0  0  0
    1.9022    5.2123   -0.4669 H   0  0  0  0  0  0
    3.2998    6.1303    0.0418 H   0  0  0  0  0  0
    1.7861    7.8429    1.0853 H   0  0  0  0  0  0
    1.5732    7.6971   -0.6432 H   0  0  0  0  0  0
    2.7079    5.7999    2.4274 H   0  0  0  0  0  0
    1.2157    4.9922    1.9752 H   0  0  0  0  0  0
   -0.4317    6.2072   -0.2516 H   0  0  0  0  0  0
   -0.2316    6.4255    1.4793 H   0  0  0  0  0  0
    3.5550    3.7800    3.6203 H   0  0  0  0  0  0
    2.0114    3.0197    3.2708 H   0  0  0  0  0  0
   -2.8257    8.8940    0.4727 H   0  0  0  0  0  0
   -2.6877    7.2104   -0.0059 H   0  0  0  0  0  0
    3.2081    1.2066    1.9958 H   0  0  0  0  0  0
    4.7410    1.9585    2.3733 H   0  0  0  0  0  0
   -3.5653    7.0695    2.1961 H   0  0  0  0  0  0
   -1.8603    6.7550    2.4236 H   0  0  0  0  0  0
    4.3528    1.5824    4.8152 H   0  0  0  0  0  0
    2.7792    0.8860    4.4720 H   0  0  0  0  0  0
   -3.4635    9.1854    3.2209 H   0  0  0  0  0  0
   -2.2182    8.3359    4.1189 H   0  0  0  0  0  0
    4.4279   -0.7821    4.7830 H   0  0  0  0  0  0
    3.8741   -0.8445    3.2334 H   0  0  0  0  0  0
   -1.4725   10.4541    3.3742 H   0  0  0  0  0  0
   -0.5865    9.2751    2.6414 H   0  0  0  0  0  0
    2.9639    3.8801    1.6024 N   0  3  0  0  0  0
    2.5003    3.2891    0.9267 H   0  0  0  0  0  0
    3.9072    4.0540    1.2852 H   0  0  0  0  0  0
   -0.8575    8.1481    0.4436 N   0  3  0  0  0  0
   -0.4953    8.7916    1.1332 H   0  0  0  0  0  0
   -0.7347    8.5551   -0.4730 H   0  0  0  0  0  0
    4.4077   -0.2992    3.8956 N   0  3  0  0  0  0
    5.3529   -0.1900    3.5559 H   0  0  0  0  0  0
   -1.5007    9.7011    2.7010 N   0  3  0  0  0  0
   -1.7569   10.0735    1.7975 H   0  0  0  0  0  0
  1  2  1  0  0  0
  1  3  1  0  0  0
  1 11  1  0  0  0
  1 12  1  0  0  0
  2  4  1  0  0  0
  2 13  1  0  0  0
  2 14  1  0  0  0
  3 15  1  0  0  0
  3 16  1  0  0  0
  3 35  1  0  0  0
  4 17  1  0  0  0
  4 18  1  0  0  0
  4 38  1  0  0  0
  5  7  1  0  0  0
  5 19  1  0  0  0
  5 20  1  0  0  0
  5 35  1  0  0  0
  6  8  1  0  0  0
  6 21  1  0  0  0
  6 22  1  0  0  0
  6 38  1  0  0  0
  7  9  1  0  0  0
  7 23  1  0  0  0
  7 24  1  0  0  0
  8 10  1  0  0  0
  8 25  1  0  0  0
  8 26  1  0  0  0
  9 27  1  0  0  0
  9 28  1  0  0  0
  9 41  1  0  0  0
 10 29  1  0  0  0
 10 30  1  0  0  0
 10 43  1  0  0  0
 31 41  1  0  0  0
 32 41  1  0  0  0
 33 43  1  0  0  0
 34 43  1  0  0  0
 35 36  1  0  0  0
 35 37  1  0  0  0
 38 39  1  0  0  0
 38 40  1  0  0  0
 41 42  1  0  0  0
 43 44  1  0  0  0
M  CHG  4  35   1  38   1  41   1  43   1
M  END
> <i_ionizer_Ion_state_n>
15

> <i_ionizer_Tot_Q>
4

> <s_ionizer_Ion_centers>
35_38_41_43

> <s_ionizer_Ion_types>
N5_N5_N5_N5

> <s_ionizer_Ion_ctrs_in>
5_6_13_14

> <r_ionizer_Ionization_penalty>
0.000493153

> <r_ionizer_Ionization_penalty_charging>
0.000493153

> <r_ionizer_Ionization_penalty_neutral>
0

> <i_mmod_Serial_Number-OPLS-2005>
328

> <i_i_glide_lignum>
325

> <r_i_docking_score>
1.18877

> <r_i_glide_gscore>
1.18877

> <r_i_glide_lipo>
-0.858983

> <r_i_glide_hbond>
-1.31852

> <r_i_glide_metal>
0

> <r_i_glide_eburp>
-2.22441

> <r_i_glide_evdw>
-13.5954

> <r_i_glide_ecoul>
-22.6652

> <r_i_glide_erotb>
7.97098

> <r_i_glide_esite>
0.973862

> <r_i_glide_emodel>
-86.1028

> <r_i_glide_energy>
-36.2607

> <r_i_glide_einternal>
9.87624

> <i_i_glide_confnum>
275

> <i_i_glide_posenum>
425

$$$$
C00249
                    3D
 Structure written by MMmdl.
 49 48  0  0  1  0            999 V2000
    3.8844    3.4826    3.4928 C   0  0  0  0  0  0
    4.0000    4.4804    2.3312 C   0  0  0  0  0  0
    3.2312    2.1586    3.0701 C   0  0  0  0  0  0
    2.6316    4.9726    1.8380 C   0  0  0  0  0  0
    3.2935    1.0917    4.1728 C   0  0  0  0  0  0
    2.7484    5.9984    0.7012 C   0  0  0  0  0  0
    2.8546   -0.2942    3.6780 C   0  0  0  0  0  0
    1.3842    6.3786    0.1074 C   0  0  0  0  0  0
    1.3220   -0.4614    3.6852 C   0  0  0  0  0  0
    0.4646    7.0601    1.1312 C   0  0  0  0  0  0
    0.6198    0.3314    2.5751 C   0  0  0  0  0  0
   -0.9097    7.4149    0.5452 C   0  0  0  0  0  0
    0.1035   -0.2942    1.6221 O   0  0  0  0  0  0
   -1.7754    8.2255    1.5208 C   0  0  0  0  0  0
   -2.1157    7.4428    2.7975 C   0  0  0  0  0  0
   -3.0490    8.2216    3.7357 C   0  0  0  0  0  0
   -2.3834    9.4704    4.3245 C   0  0  0  0  0  0
    4.8765    3.2834    3.8998 H   0  0  0  0  0  0
    3.3040    3.9314    4.2999 H   0  0  0  0  0  0
    4.6008    5.3347    2.6459 H   0  0  0  0  0  0
    4.5369    4.0134    1.5045 H   0  0  0  0  0  0
    2.1903    2.3381    2.7984 H   0  0  0  0  0  0
    3.7237    1.7813    2.1730 H   0  0  0  0  0  0
    2.0410    4.1208    1.4984 H   0  0  0  0  0  0
    2.0840    5.4154    2.6710 H   0  0  0  0  0  0
    4.3105    1.0314    4.5625 H   0  0  0  0  0  0
    2.6604    1.3950    5.0076 H   0  0  0  0  0  0
    3.2450    6.8957    1.0724 H   0  0  0  0  0  0
    3.3869    5.5956   -0.0861 H   0  0  0  0  0  0
    3.2371   -0.4519    2.6683 H   0  0  0  0  0  0
    3.3112   -1.0603    4.3067 H   0  0  0  0  0  0
    1.5324    7.0426   -0.7452 H   0  0  0  0  0  0
    0.8953    5.4837   -0.2797 H   0  0  0  0  0  0
    1.0621   -1.5143    3.5708 H   0  0  0  0  0  0
    0.9171   -0.1386    4.6449 H   0  0  0  0  0  0
    0.3330    6.4045    1.9929 H   0  0  0  0  0  0
    0.9449    7.9660    1.5032 H   0  0  0  0  0  0
   -0.7752    7.9818   -0.3769 H   0  0  0  0  0  0
   -1.4341    6.4988    0.2705 H   0  0  0  0  0  0
   -1.2552    9.1462    1.7879 H   0  0  0  0  0  0
   -2.6983    8.5258    1.0229 H   0  0  0  0  0  0
   -2.5822    6.4944    2.5279 H   0  0  0  0  0  0
   -1.1949    7.1944    3.3268 H   0  0  0  0  0  0
   -3.9492    8.5162    3.1951 H   0  0  0  0  0  0
   -3.3759    7.5724    4.5487 H   0  0  0  0  0  0
   -3.0694   10.0012    4.9851 H   0  0  0  0  0  0
   -1.4985    9.2085    4.9051 H   0  0  0  0  0  0
   -2.0772   10.1613    3.5386 H   0  0  0  0  0  0
    0.6137    1.5748    2.7050 O   0  5  0  0  0  0
  1  2  1  0  0  0
  1  3  1  0  0  0
  1 18  1  0  0  0
  1 19  1  0  0  0
  2  4  1  0  0  0
  2 20  1  0  0  0
  2 21  1  0  0  0
  3  5  1  0  0  0
  3 22  1  0  0  0
  3 23  1  0  0  0
  4  6  1  0  0  0
  4 24  1  0  0  0
  4 25  1  0  0  0
  5  7  1  0  0  0
  5 26  1  0  0  0
  5 27  1  0  0  0
  6  8  1  0  0  0
  6 28  1  0  0  0
  6 29  1  0  0  0
  7  9  1  0  0  0
  7 30  1  0  0  0
  7 31  1  0  0  0
  8 10  1  0  0  0
  8 32  1  0  0  0
  8 33  1  0  0  0
  9 11  1  0  0  0
  9 34  1  0  0  0
  9 35  1  0  0  0
 10 12  1  0  0  0
 10 36  1  0  0  0
 10 37  1  0  0  0
 11 13  2  0  0  0
 11 49  1  0  0  0
 12 14  1  0  0  0
 12 38  1  0  0  0
 12 39  1  0  0  0
 14 15  1  0  0  0
 14 40  1  0  0  0
 14 41  1  0  0  0
 15 16  1  0  0  0
 15 42  1  0  0  0
 15 43  1  0  0  0
 16 17  1  0  0  0
 16 44  1  0  0  0
 16 45  1  0  0  0
 17 46  1  0  0  0
 17 47  1  0  0  0
 17 48  1  0  0  0
M  CHG  1  49  -1
M  END
> <i_ionizer_Ion_state_n>
1

> <i_ionizer_Tot_Q>
-1

> <s_ionizer_Ion_centers>
49

> <s_ionizer_Ion_types>
OM

> <s_ionizer_Ion_ctrs_in>
13

> <r_ionizer_Ionization_penalty>
0.00059219

> <r_ionizer_Ionization_penalty_charging>
0.00059219

> <r_ionizer_Ionization_penalty_neutral>
0

> <i_mmod_Serial_Number-OPLS-2005>
163

> <i_i_glide_lignum>
161

> <r_i_docking_score>
1.46559

> <r_i_glide_gscore>
1.46559

> <r_i_glide_lipo>
-1.12542

> <r_i_glide_hbond>
-0.147546

> <r_i_glide_metal>
0

> <r_i_glide_eburp>
-1.85285

> <r_i_glide_evdw>
-26.4408

> <r_i_glide_ecoul>
-1.89819

> <r_i_glide_erotb>
7.40219

> <r_i_glide_esite>
-0.50571

> <r_i_glide_emodel>
-43.446

> <r_i_glide_energy>
-28.339

> <r_i_glide_einternal>
7.75948

> <i_i_glide_confnum>
328

> <i_i_glide_posenum>
219

$$$$
